@<TRIPOS>MOLECULE
ZINC38321402
   76    82     0     0     0
SMALL
USER_CHARGES

@<TRIPOS>ATOM
      1 C1          0.4310    1.5076   -1.3639 C.3       1 <0>        -0.1699
      2 C2         -0.0188    0.3493   -0.4713 C.3       1 <0>         0.1576
      3 C3          0.8533    0.3050    0.7849 C.3       1 <0>        -0.1001
      4 H1          0.9533   -0.7284    1.1169 H         1 <0>         0.0974
      5 C4          2.2417    0.8672    0.4567 C.3       1 <0>        -0.1345
      6 C5          2.5263    2.0512    1.3689 C.3       1 <0>        -0.0586
      7 C6          1.4722    3.1390    1.1281 C.3       1 <0>        -0.1114
      8 C7          0.0822    2.5870    1.4447 C.3       1 <0>        -0.1498
      9 C8          0.1872    1.1290    1.8917 C.3       1 <0>         0.1392
     10 C9          1.0327    1.0439    3.1653 C.3       1 <0>         0.0737
     11 H2          1.0947    0.0154    3.5210 H         1 <0>         0.1169
     12 C10         2.4211    1.5903    2.8308 C.3       1 <0>        -0.0454
     13 C11         3.5334    0.6459    3.2104 C.3       1 <0>        -0.1211
     14 C12         4.8977    1.2224    2.8250 C.3       1 <0>        -0.0107
     15 N1          4.9039    1.5632    1.3942 N.4       1 <0>        -0.3880
     16 C13         3.9169    2.6439    1.1753 C.3       1 <0>         0.0573
     17 H3          4.0109    3.0155    0.1550 H         1 <0>         0.1466
     18 C14         4.2611    3.7755    2.1430 C.3       1 <0>        -0.0941
     19 C15         3.3087    3.9382    3.2785 C.ar      1 <0>        -0.0530
     20 C16         2.4464    2.8973    3.5666 C.ar      1 <0>        -0.1746
     21 C17         1.3619    2.9528    4.4179 C.ar      1 <0>         0.1067
     22 C18         1.2530    4.0777    5.2475 C.ar      1 <0>         0.1057
     23 C19         2.1993    5.0849    5.0689 C.ar      1 <0>        -0.1016
     24 C20         3.1915    5.0414    4.1010 C.ar      1 <0>        -0.1156
     25 O1          0.2703    4.1813    6.1819 O.3       1 <0>        -0.4801
     26 O2          0.5194    1.9113    4.1927 O.3       1 <0>        -0.2684
     27 C21         6.2414    2.0255    1.0000 C.3       1 <0>         0.0212
     28 C22         7.2410    0.8761    1.1433 C.3       1 <0>        -0.2106
     29 C23         8.3675    1.0428    2.1650 C.3       1 <0>        -0.1682
     30 C24         8.6743    1.1230    0.6683 C.3       1 <0>        -0.1475
     31 O3         -1.1209    0.6142    2.1484 O.3       1 <0>        -0.3618
     32 C25        -1.8316    1.3163    3.1702 C.3       1 <0>         0.0249
     33 C26         0.1216   -0.9683   -1.2363 C.3       1 <0>        -0.0923
     34 C27         1.5655   -1.1278   -1.7166 C.3       1 <0>        -0.1503
     35 C28        -0.2410   -2.1344   -0.3145 C.3       1 <0>        -0.1511
     36 C29        -0.8193   -0.9603   -2.4428 C.3       1 <0>        -0.1409
     37 O4         -1.3846    0.5392   -0.0965 O.3       1 <0>        -0.5375
     38 H4          1.4583    1.3396   -1.6870 H         1 <0>         0.0768
     39 H5         -0.2192    1.5675   -2.2367 H         1 <0>         0.0727
     40 H6          0.3742    2.4411   -0.8040 H         1 <0>         0.0769
     41 H7          2.9945    0.0951    0.6157 H         1 <0>         0.0626
     42 H8          2.2663    1.1937   -0.5830 H         1 <0>         0.1156
     43 H9          1.6787    3.9934    1.7726 H         1 <0>         0.0852
     44 H10         1.5083    3.4547    0.0854 H         1 <0>         0.0824
     45 H11        -0.3688    3.1782    2.2417 H         1 <0>         0.0742
     46 H12        -0.5427    2.6480    0.5537 H         1 <0>         0.1053
     47 H13         3.5075    0.4765    4.2868 H         1 <0>         0.1160
     48 H14         3.3878   -0.3039    2.6958 H         1 <0>         0.0964
     49 H15         5.0916    2.1197    3.4126 H         1 <0>         0.1353
     50 H16         5.6736    0.4834    3.0253 H         1 <0>         0.1376
     51 H17         5.2547    3.5897    2.5508 H         1 <0>         0.1003
     52 H18         4.2922    4.7101    1.5830 H         1 <0>         0.1186
     53 H19         2.1577    5.9460    5.7194 H         1 <0>         0.1408
     54 H20         3.8735    5.8714    3.9904 H         1 <0>         0.1369
     55 H21         0.5111    3.8231    7.0472 H         1 <0>         0.3974
     56 H22         6.2190    2.3604   -0.0370 H         1 <0>         0.1355
     57 H23         6.5440    2.8524    1.6425 H         1 <0>         0.1310
     58 H24         6.8303   -0.1241    1.0052 H         1 <0>         0.1241
     59 H25         8.3965    1.9714    2.7352 H         1 <0>         0.1057
     60 H26         8.6981    0.1522    2.6995 H         1 <0>         0.1101
     61 H27         9.2067    0.2852    0.2180 H         1 <0>         0.1125
     62 H28         8.9051    2.1044    0.2537 H         1 <0>         0.1080
     63 H29        -2.8145    0.8648    3.3049 H         1 <0>         0.0882
     64 H30        -1.2743    1.2592    4.1052 H         1 <0>         0.0627
     65 H31        -1.9481    2.3605    2.8799 H         1 <0>         0.0458
     66 H32         2.1889   -1.4642   -0.8881 H         1 <0>         0.0512
     67 H33         1.6018   -1.8631   -2.5205 H         1 <0>         0.0620
     68 H34         1.9343   -0.1699   -2.0833 H         1 <0>         0.0601
     69 H35        -1.2697   -2.0207    0.0277 H         1 <0>         0.0606
     70 H36        -0.1410   -3.0730   -0.8595 H         1 <0>         0.0624
     71 H37         0.4292   -2.1401    0.5450 H         1 <0>         0.0560
     72 H38        -0.5609   -0.1296   -3.0995 H         1 <0>         0.0572
     73 H39        -0.7193   -1.8990   -2.9878 H         1 <0>         0.0552
     74 H40        -1.8479   -0.8467   -2.1006 H         1 <0>         0.0645
     75 H41        -1.7375   -0.1594    0.4713 H         1 <0>         0.3835
     76 H42         4.6485    0.7530    0.8497 H         1 <0>         0.4222
@<TRIPOS>BOND
     1    1    2 1
     2    1   38 1
     3    1   39 1
     4    1   40 1
     5    2    3 1
     6    2   33 1
     7    2   37 1
     8    3    4 1
     9    3    9 1
    10    3    5 1
    11    5    6 1
    12    5   41 1
    13    5   42 1
    14    6   12 1
    15    6   16 1
    16    6    7 1
    17    7    8 1
    18    7   43 1
    19    7   44 1
    20    8    9 1
    21    8   45 1
    22    8   46 1
    23    9   10 1
    24    9   31 1
    25   10   11 1
    26   10   26 1
    27   10   12 1
    28   12   20 1
    29   12   13 1
    30   13   14 1
    31   13   47 1
    32   13   48 1
    33   14   15 1
    34   14   49 1
    35   14   50 1
    36   15   16 1
    37   15   27 1
    38   15   76 1
    39   16   17 1
    40   16   18 1
    41   18   19 1
    42   18   51 1
    43   18   52 1
    44   19   24 ar
    45   19   20 ar
    46   20   21 ar
    47   21   22 ar
    48   21   26 1
    49   22   23 ar
    50   22   25 1
    51   23   24 ar
    52   23   53 1
    53   24   54 1
    54   25   55 1
    55   27   28 1
    56   27   56 1
    57   27   57 1
    58   28   30 1
    59   28   29 1
    60   28   58 1
    61   29   30 1
    62   29   59 1
    63   29   60 1
    64   30   61 1
    65   30   62 1
    66   31   32 1
    67   32   63 1
    68   32   64 1
    69   32   65 1
    70   33   34 1
    71   33   35 1
    72   33   36 1
    73   34   66 1
    74   34   67 1
    75   34   68 1
    76   35   69 1
    77   35   70 1
    78   35   71 1
    79   36   72 1
    80   36   73 1
    81   36   74 1
    82   37   75 1
@<TRIPOS>MOLECULE
ZINC03802871
   58    65     0     0     0
SMALL
USER_CHARGES

@<TRIPOS>ATOM
      1 C1         -0.1787    1.3963    0.6547 C.ar      1 <0>        -0.1414
      2 C2          0.9728    2.1631    0.5824 C.ar      1 <0>        -0.0890
      3 C3          2.2258    1.5999    0.4142 C.ar      1 <0>        -0.1279
      4 C4          2.2859    0.2109    0.3195 C.ar      1 <0>         0.1099
      5 C5          1.1035   -0.5694    0.3934 C.ar      1 <0>        -0.1040
      6 C6         -0.1499    0.0266    0.5636 C.ar      1 <0>        -0.0690
      7 C7          1.5272   -1.9471    0.2600 C.2       1 <0>        -0.1416
      8 C8          2.8698   -1.9430    0.1215 C.2       1 <0>         0.0479
      9 N1          3.3313   -0.6509    0.1562 N.pl3     1 <0>        -0.5699
     10 H1          4.2619   -0.3893    0.0767 H         1 <0>         0.4203
     11 C9          3.7090   -3.1833   -0.0427 C.3       1 <0>         0.1683
     12 H2          4.5253   -3.2040    0.6793 H         1 <0>         0.1385
     13 C10         2.8539   -4.4413    0.0546 C.3       1 <0>        -0.0264
     14 C11         3.6747   -5.6375    0.5294 C.3       1 <0>        -0.1248
     15 C12         2.8403   -6.9102    0.3481 C.3       1 <0>        -0.0083
     16 N2          1.5888   -6.7900    1.1042 N.4       1 <0>        -0.3731
     17 C13         0.7919   -5.6659    0.6064 C.3       1 <0>         0.0054
     18 H3         -0.1248   -5.6260    1.1949 H         1 <0>         0.1447
     19 C14         1.5496   -4.3510    0.8352 C.3       1 <0>         0.1508
     20 C15         0.6852   -3.1963    0.2658 C.3       1 <0>        -0.0639
     21 O1          1.8215   -4.1764    2.2272 O.3       1 <0>        -0.5343
     22 C16         0.3994   -5.8867   -0.8449 C.3       1 <0>        -0.0912
     23 C17         1.3583   -5.2881   -1.8218 C.ar      1 <0>        -0.0541
     24 C18         2.4439   -4.6354   -1.3838 C.ar      1 <0>        -0.1636
     25 C19         3.3196   -3.9124   -2.1787 C.ar      1 <0>         0.0971
     26 C20         3.1491   -3.9765   -3.5672 C.ar      1 <0>         0.1099
     27 C21         2.0807   -4.7357   -4.0387 C.ar      1 <0>        -0.0939
     28 C22         1.2266   -5.3471   -3.1978 C.ar      1 <0>        -0.1178
     29 O2          3.9886   -3.3265   -4.4170 O.3       1 <0>        -0.4798
     30 O3          4.2102   -3.2159   -1.4071 O.3       1 <0>        -0.2775
     31 C23         0.8164   -8.0315    0.9629 C.3       1 <0>         0.0189
     32 C24         1.5621   -9.1771    1.6501 C.3       1 <0>        -0.2105
     33 C25         2.0486  -10.3311    0.7711 C.3       1 <0>        -0.1681
     34 C26         0.8628  -10.5364    1.7158 C.3       1 <0>        -0.1476
     35 H4         -1.1288    1.8913    0.7915 H         1 <0>         0.1236
     36 H5          0.8898    3.2371    0.6595 H         1 <0>         0.1275
     37 H6          3.1159    2.2089    0.3585 H         1 <0>         0.1328
     38 H7         -1.0530   -0.5629    0.6211 H         1 <0>         0.1285
     39 H8          4.5878   -5.7118   -0.0613 H         1 <0>         0.1185
     40 H9          3.9271   -5.5128    1.5824 H         1 <0>         0.1083
     41 H10         2.6138   -7.0482   -0.7091 H         1 <0>         0.1318
     42 H11         3.4039   -7.7688    0.7132 H         1 <0>         0.1394
     43 H12        -0.1813   -3.0510    0.9109 H         1 <0>         0.0907
     44 H13         0.3565   -3.4213   -0.7488 H         1 <0>         0.1001
     45 H14         1.0291   -4.1120    2.7777 H         1 <0>         0.3942
     46 H15         0.3369   -6.9590   -1.0299 H         1 <0>         0.1059
     47 H16        -0.5853   -5.4493   -1.0102 H         1 <0>         0.1283
     48 H17         1.9459   -4.8247   -5.1065 H         1 <0>         0.1471
     49 H18         0.4150   -5.9082   -3.6368 H         1 <0>         0.1336
     50 H19         4.7521   -3.8515   -4.6937 H         1 <0>         0.3978
     51 H20        -0.1621   -7.9053    1.4263 H         1 <0>         0.1355
     52 H21         0.6904   -8.2626   -0.0948 H         1 <0>         0.1320
     53 H22         2.1865   -8.8909    2.4965 H         1 <0>         0.1255
     54 H23         1.8374  -10.2741   -0.2967 H         1 <0>         0.1058
     55 H24         2.9933  -10.8042    1.0390 H         1 <0>         0.1104
     56 H25         1.0273  -11.1445    2.6053 H         1 <0>         0.1126
     57 H26        -0.1286  -10.6144    1.2696 H         1 <0>         0.1079
     58 H27         1.8022   -6.6407    2.0790 H         1 <0>         0.4282
@<TRIPOS>BOND
     1    1    6 ar
     2    1    2 ar
     3    1   35 1
     4    2    3 ar
     5    2   36 1
     6    3    4 ar
     7    3   37 1
     8    4    9 1
     9    4    5 ar
    10    5    6 ar
    11    5    7 1
    12    6   38 1
    13    7   20 1
    14    7    8 2
    15    8    9 1
    16    8   11 1
    17    9   10 1
    18   11   12 1
    19   11   30 1
    20   11   13 1
    21   13   19 1
    22   13   24 1
    23   13   14 1
    24   14   15 1
    25   14   39 1
    26   14   40 1
    27   15   16 1
    28   15   41 1
    29   15   42 1
    30   16   17 1
    31   16   31 1
    32   16   58 1
    33   17   18 1
    34   17   19 1
    35   17   22 1
    36   19   20 1
    37   19   21 1
    38   20   43 1
    39   20   44 1
    40   21   45 1
    41   22   23 1
    42   22   46 1
    43   22   47 1
    44   23   28 ar
    45   23   24 ar
    46   24   25 ar
    47   25   26 ar
    48   25   30 1
    49   26   27 ar
    50   26   29 1
    51   27   28 ar
    52   27   48 1
    53   28   49 1
    54   29   50 1
    55   31   32 1
    56   31   51 1
    57   31   52 1
    58   32   34 1
    59   32   33 1
    60   32   53 1
    61   33   34 1
    62   33   54 1
    63   33   55 1
    64   34   56 1
    65   34   57 1
@<TRIPOS>MOLECULE
ZINC14089740
   60    65     0     0     0
SMALL
USER_CHARGES
(2S,3S,4S,5R,6R)-3,4,5-trihydroxy-6-(hydroxy-methyl-BLAHyl)oxy-tetrahydropyran-2-carboxylic acid
@<TRIPOS>ATOM
      1 C1          2.2238   -3.3128    8.0696 C.3       1 <0>        -0.0471
      2 C2          3.4617   -1.4602    7.1304 C.3       1 <0>        -0.0033
      3 C3          3.4604    0.0510    6.8535 C.3       1 <0>        -0.1222
      4 C4          2.2591    0.3419    5.9499 C.3       1 <0>        -0.0575
      5 C5          2.3752   -0.5146    4.7140 C.ar      1 <0>        -0.1776
      6 C6          1.8556   -1.7726    4.5248 C.ar      1 <0>        -0.0492
      7 C7          2.1142   -2.3494    3.2944 C.ar      1 <0>        -0.1194
      8 C8          2.8193   -1.6464    2.3302 C.ar      1 <0>        -0.1005
      9 C9          3.2861   -0.3467    2.5162 C.ar      1 <0>         0.1020
     10 C10         3.0344    0.2470    3.7569 C.ar      1 <0>         0.1420
     11 O1          3.2757    1.4871    4.2413 O.3       1 <0>        -0.2773
     12 C11         2.3032    1.7313    5.3230 C.3       1 <0>         0.1113
     13 H1          2.5850    2.5167    6.0243 H         1 <0>         0.1520
     14 C12         1.0050    2.0292    4.5642 C.3       1 <0>         0.0974
     15 H2          0.8451    3.1074    4.5659 H         1 <0>         0.0841
     16 C13        -0.2057    1.3748    5.1224 C.2       1 <0>        -0.1210
     17 C14        -0.2362    0.4448    6.0190 C.2       1 <0>        -0.1521
     18 C15         0.9959   -0.0584    6.6750 C.3       1 <0>        -0.0436
     19 H3          1.0359    0.4052    7.6606 H         1 <0>         0.0950
     20 C16         1.0254   -1.5652    6.8918 C.3       1 <0>         0.0574
     21 H4          0.1286   -1.8319    7.4512 H         1 <0>         0.1387
     22 C17         1.0512   -2.3956    5.6193 C.3       1 <0>        -0.0857
     23 O2          1.1655    1.6011    3.2103 O.3       1 <0>        -0.3396
     24 C18         0.2700    2.2305    2.2916 C.3       1 <0>         0.2181
     25 H5          0.2050    3.2947    2.5185 H         1 <0>         0.0634
     26 C19         0.7891    2.0438    0.8636 C.3       1 <0>         0.1027
     27 H6          0.8929    0.9800    0.6499 H         1 <0>         0.0766
     28 C20        -0.2062    2.6686   -0.1189 C.3       1 <0>         0.1245
     29 H7         -0.2730    3.7413    0.0623 H         1 <0>         0.0706
     30 C21        -1.5819    2.0274    0.0881 C.3       1 <0>         0.0696
     31 H8         -1.5260    0.9633   -0.1413 H         1 <0>         0.0663
     32 C22        -2.0094    2.2147    1.5461 C.3       1 <0>         0.0224
     33 H9         -2.1043    3.2787    1.7632 H         1 <0>         0.0715
     34 O3         -1.0254    1.6385    2.4074 O.3       1 <0>        -0.3592
     35 C23        -3.3353    1.5352    1.7724 C.2       1 <0>         0.4750
     36 O4         -3.4097    0.5899    2.5213 O.co2     1 <0>        -0.6071
     37 O5         -2.5347    2.6524   -0.7743 O.3       1 <0>        -0.5639
     38 O6          0.2335    2.4347   -1.4584 O.3       1 <0>        -0.5511
     39 O7          2.0594    2.6842    0.7283 O.3       1 <0>        -0.5421
     40 O8          3.9561    0.3149    1.5349 O.3       1 <0>        -0.4845
     41 H10         2.4155   -3.8965    7.1692 H         1 <0>         0.1260
     42 H11         3.0144   -3.4967    8.7971 H         1 <0>         0.1221
     43 H12         1.2637   -3.6054    8.4946 H         1 <0>         0.1233
     44 H13         4.2776   -1.6986    7.8127 H         1 <0>         0.1277
     45 H14         3.6115   -1.9960    6.1931 H         1 <0>         0.1344
     46 H15         4.3831    0.3370    6.3486 H         1 <0>         0.1188
     47 H16         3.3625    0.6002    7.7899 H         1 <0>         0.0963
     48 H17         1.7661   -3.3500    3.0847 H         1 <0>         0.1323
     49 H18         3.0170   -2.1310    1.3855 H         1 <0>         0.1352
     50 H19        -1.1593    1.7101    4.7421 H         1 <0>         0.1357
     51 H20        -1.1883    0.0189    6.2995 H         1 <0>         0.1302
     52 H21         0.0280   -2.5303    5.2686 H         1 <0>         0.1261
     53 H22         1.4716   -3.3747    5.8488 H         1 <0>         0.0980
     54 H23        -3.4302    2.2964   -0.6946 H         1 <0>         0.4068
     55 H24        -0.3547    2.7982   -2.1345 H         1 <0>         0.3908
     56 H25         2.7085    2.4146    1.3925 H         1 <0>         0.3768
     57 H26         3.3811    0.7547    0.8938 H         1 <0>         0.3916
     58 N1          2.1866   -1.8711    7.7705 N.4       1 <0>        -0.3963
     59 H27         2.0780   -1.3521    8.6497 H         1 <0>         0.4274
     60 O9         -4.4337    1.9800    1.1419 O.co2     1 <0>        -0.7395
@<TRIPOS>BOND
     1    1   41 1
     2    1   42 1
     3    1   43 1
     4    1   58 1
     5    2    3 1
     6    2   44 1
     7    2   45 1
     8    2   58 1
     9    3    4 1
    10    3   46 1
    11    3   47 1
    12    4   12 1
    13    4   18 1
    14    4    5 1
    15    5   10 ar
    16    5    6 ar
    17    6   22 1
    18    6    7 ar
    19    7    8 ar
    20    7   48 1
    21    8    9 ar
    22    8   49 1
    23    9   10 ar
    24    9   40 1
    25   10   11 1
    26   11   12 1
    27   12   13 1
    28   12   14 1
    29   14   15 1
    30   14   16 1
    31   14   23 1
    32   16   17 2
    33   16   50 1
    34   17   18 1
    35   17   51 1
    36   18   19 1
    37   18   20 1
    38   20   21 1
    39   20   22 1
    40   20   58 1
    41   22   52 1
    42   22   53 1
    43   23   24 1
    44   24   25 1
    45   24   34 1
    46   24   26 1
    47   26   27 1
    48   26   28 1
    49   26   39 1
    50   28   29 1
    51   28   30 1
    52   28   38 1
    53   30   31 1
    54   30   32 1
    55   30   37 1
    56   32   33 1
    57   32   34 1
    58   32   35 1
    59   35   36 2
    60   35   60 1
    61   37   54 1
    62   38   55 1
    63   39   56 1
    64   40   57 1
    65   58   59 1
@<TRIPOS>MOLECULE
ZINC53147203
   74    75     0     0     0
SMALL
USER_CHARGES

@<TRIPOS>ATOM
      1 C1         -0.0225    1.8097    0.0120 C.3       1 <0>        -0.1211
      2 S1          0.0021   -0.0041    0.0020 S.3       1 <0>        -0.2721
      3 C2         -1.7518   -0.4668    0.0163 C.3       1 <0>        -0.0758
      4 C3         -1.8771   -1.9917    0.0093 C.3       1 <0>        -0.0932
      5 C4         -3.3564   -2.3820    0.0213 C.3       1 <0>         0.0814
      6 H1         -3.8661   -1.9002   -0.8131 H         1 <0>         0.0862
      7 C5         -3.4823   -3.8780   -0.1094 C.2       1 <0>         0.4933
      8 O1         -3.8614   -4.5431    0.8396 O.co2     1 <0>        -0.6829
      9 O2         -3.2050   -4.4233   -1.1640 O.co2     1 <0>        -0.6914
     10 N1         -3.9655   -1.9489    1.2813 N.am      1 <0>        -0.6867
     11 C6         -5.2910   -1.7131    1.3430 C.2       1 <0>         0.5116
     12 O3         -5.9796   -1.8594    0.3554 O.2       1 <0>        -0.5408
     13 C7         -5.9176   -1.2675    2.6392 C.3       1 <0>         0.1412
     14 H2         -5.4677   -0.3265    2.9556 H         1 <0>         0.1113
     15 C8         -5.6812   -2.3321    3.7123 C.3       1 <0>        -0.0910
     16 C9         -6.1992   -1.8339    5.0369 C.ar      1 <0>        -0.0566
     17 C10        -5.3674   -1.1219    5.8808 C.ar      1 <0>        -0.1047
     18 C11        -5.8426   -0.6649    7.0957 C.ar      1 <0>        -0.1131
     19 C12        -7.1497   -0.9194    7.4667 C.ar      1 <0>        -0.1244
     20 C13        -7.9817   -1.6306    6.6224 C.ar      1 <0>        -0.1147
     21 C14        -7.5078   -2.0839    5.4055 C.ar      1 <0>        -0.1103
     22 N2         -7.3576   -1.0799    2.4463 N.am      1 <0>        -0.7022
     23 C15        -8.0409   -0.2388    3.2477 C.2       1 <0>         0.5105
     24 O4         -7.4636    0.3627    4.1285 O.2       1 <0>        -0.5219
     25 C16        -9.5222   -0.0457    3.0493 C.3       1 <0>         0.1012
     26 N3        -10.0269    0.9100    4.0383 N.am      1 <0>        -0.7065
     27 C17       -11.3339    1.2390    4.0517 C.2       1 <0>         0.5121
     28 O5        -12.0921    0.7438    3.2450 O.2       1 <0>        -0.5379
     29 C18       -11.8530    2.2221    5.0690 C.3       1 <0>         0.0991
     30 N4        -13.2931    2.4098    4.8762 N.am      1 <0>        -0.7135
     31 C19       -13.9763    3.2509    5.6775 C.2       1 <0>         0.4823
     32 O6        -13.3990    3.8524    6.5583 O.2       1 <0>        -0.5427
     33 C20       -15.4577    3.4439    5.4791 C.3       1 <0>         0.0845
     34 H3        -15.9216    2.4847    5.2494 H         1 <0>         0.1071
     35 C21       -15.6949    4.4155    4.3212 C.3       1 <0>        -0.0684
     36 C22       -17.1726    4.5139    4.0428 C.ar      1 <0>        -0.0781
     37 C23       -17.7642    3.6487    3.1411 C.ar      1 <0>        -0.1010
     38 C24       -19.1186    3.7372    2.8837 C.ar      1 <0>        -0.1459
     39 C25       -19.8853    4.6950    3.5313 C.ar      1 <0>         0.0996
     40 C26       -19.2895    5.5617    4.4360 C.ar      1 <0>        -0.1467
     41 C27       -17.9356    5.4657    4.6937 C.ar      1 <0>        -0.0735
     42 O7        -21.2178    4.7844    3.2795 O.3       1 <0>        -0.5022
     43 N5        -16.0489    3.9920    6.7072 N.3       1 <0>        -0.8134
     44 H4          1.0001    2.1870    0.0043 H         1 <0>         0.0982
     45 H5         -0.5497    2.1708   -0.8711 H         1 <0>         0.0736
     46 H6         -0.5327    2.1613    0.9088 H         1 <0>         0.0731
     47 H7         -2.2257   -0.0675    0.9130 H         1 <0>         0.0773
     48 H8         -2.2427   -0.0579   -0.8669 H         1 <0>         0.0796
     49 H9         -1.4032   -2.3910   -0.8874 H         1 <0>         0.0924
     50 H10        -1.3862   -2.4006    0.8924 H         1 <0>         0.0733
     51 H11        -3.4147   -1.8318    2.0712 H         1 <0>         0.3931
     52 H12        -6.2058   -3.2473    3.4380 H         1 <0>         0.0871
     53 H13        -4.6134   -2.5358    3.7932 H         1 <0>         0.0920
     54 H14        -4.3462   -0.9231    5.5910 H         1 <0>         0.1165
     55 H15        -5.1925   -0.1092    7.7554 H         1 <0>         0.1148
     56 H16        -7.5207   -0.5629    8.4162 H         1 <0>         0.1128
     57 H17        -9.0029   -1.8298    6.9124 H         1 <0>         0.1114
     58 H18        -8.1590   -2.6364    4.7443 H         1 <0>         0.1104
     59 H19        -7.8194   -1.5610    1.7419 H         1 <0>         0.4134
     60 H20        -9.7075    0.3377    2.0460 H         1 <0>         0.1019
     61 H21       -10.0329   -1.0007    3.1733 H         1 <0>         0.1012
     62 H22        -9.4205    1.3060    4.6835 H         1 <0>         0.4159
     63 H23       -11.6677    1.8386    6.0724 H         1 <0>         0.1016
     64 H24       -11.3423    3.1770    4.9450 H         1 <0>         0.1017
     65 H25       -13.7548    1.9287    4.1717 H         1 <0>         0.4137
     66 H26       -15.3090    5.3994    4.5877 H         1 <0>         0.0807
     67 H27       -15.1808    4.0524    3.4313 H         1 <0>         0.0840
     68 H28       -17.1669    2.9032    2.6372 H         1 <0>         0.1260
     69 H29       -19.5800    3.0616    2.1788 H         1 <0>         0.1266
     70 H30       -19.8842    6.3083    4.9413 H         1 <0>         0.1259
     71 H31       -17.4721    6.1373    5.4012 H         1 <0>         0.1259
     72 H32       -21.7653    4.2387    3.8604 H         1 <0>         0.3895
     73 H33       -15.9622    3.3401    7.4724 H         1 <0>         0.3470
     74 H34       -15.6352    4.8819    6.9417 H         1 <0>         0.3503
@<TRIPOS>BOND
     1    1    2 1
     2    1   44 1
     3    1   45 1
     4    1   46 1
     5    2    3 1
     6    3    4 1
     7    3   47 1
     8    3   48 1
     9    4    5 1
    10    4   49 1
    11    4   50 1
    12    5    6 1
    13    5    7 1
    14    5   10 1
    15    7    8 2
    16    7    9 1
    17   10   11 am
    18   10   51 1
    19   11   12 2
    20   11   13 1
    21   13   14 1
    22   13   15 1
    23   13   22 1
    24   15   16 1
    25   15   52 1
    26   15   53 1
    27   16   21 ar
    28   16   17 ar
    29   17   18 ar
    30   17   54 1
    31   18   19 ar
    32   18   55 1
    33   19   20 ar
    34   19   56 1
    35   20   21 ar
    36   20   57 1
    37   21   58 1
    38   22   23 am
    39   22   59 1
    40   23   24 2
    41   23   25 1
    42   25   26 1
    43   25   60 1
    44   25   61 1
    45   26   27 am
    46   26   62 1
    47   27   28 2
    48   27   29 1
    49   29   30 1
    50   29   63 1
    51   29   64 1
    52   30   31 am
    53   30   65 1
    54   31   32 2
    55   31   33 1
    56   33   34 1
    57   33   35 1
    58   33   43 1
    59   35   36 1
    60   35   66 1
    61   35   67 1
    62   36   41 ar
    63   36   37 ar
    64   37   38 ar
    65   37   68 1
    66   38   39 ar
    67   38   69 1
    68   39   40 ar
    69   39   42 1
    70   40   41 ar
    71   40   70 1
    72   41   71 1
    73   42   72 1
    74   43   73 1
    75   43   74 1
@<TRIPOS>MOLECULE
ZINC00001773
   49    54     0     0     0
SMALL
USER_CHARGES

@<TRIPOS>ATOM
      1 C1         -0.2443    1.2570    0.4660 C.ar      1 <0>        -0.1112
      2 C2          0.9083    2.0200    0.5623 C.ar      1 <0>        -0.0962
      3 C3          2.1900    1.4753    0.5348 C.ar      1 <0>         0.1149
      4 C4          2.2879    0.0876    0.3806 C.ar      1 <0>         0.0997
      5 C5          1.1121   -0.6326    0.2304 C.ar      1 <0>        -0.1886
      6 C6         -0.1602   -0.1156    0.3155 C.ar      1 <0>        -0.0596
      7 C7         -1.3282   -1.0478    0.3098 C.3       1 <0>        -0.0925
      8 C8         -0.9396   -2.5064    0.1383 C.3       1 <0>         0.0145
      9 H1         -1.6997   -3.1130    0.6306 H         1 <0>         0.1456
     10 C9          0.4167   -2.8747    0.7456 C.3       1 <0>         0.1448
     11 C10         1.4829   -2.0836    0.0450 C.3       1 <0>        -0.0304
     12 C11         1.4804   -2.4286   -1.4426 C.3       1 <0>        -0.1241
     13 C12         0.0910   -2.1126   -2.0094 C.3       1 <0>        -0.0096
     14 N1         -0.9309   -2.8716   -1.2830 N.4       1 <0>        -0.3739
     15 C13        -2.2494   -2.5851   -1.8638 C.3       1 <0>         0.0182
     16 C14        -2.3011   -3.1153   -3.2981 C.3       1 <0>        -0.2108
     17 C15        -2.4792   -2.0935   -4.4229 C.3       1 <0>        -0.1679
     18 C16        -3.6360   -3.0186   -4.0393 C.3       1 <0>        -0.1476
     19 C17         2.8868   -2.1036    0.6341 C.3       1 <0>         0.0644
     20 H2          3.5148   -2.8457    0.1412 H         1 <0>         0.1600
     21 O1          3.3506   -0.7456    0.3657 O.3       1 <0>        -0.2592
     22 C18         2.8706   -2.3034    2.1213 C.2       1 <0>         0.3361
     23 O2          3.8019   -1.8874    2.7678 O.2       1 <0>        -0.4120
     24 C19         1.7528   -2.9946    2.8421 C.3       1 <0>        -0.1575
     25 C20         0.4362   -2.5258    2.2328 C.3       1 <0>        -0.1426
     26 O3          0.6517   -4.2744    0.5791 O.3       1 <0>        -0.5414
     27 O4          3.2968    2.2569    0.6522 O.3       1 <0>        -0.4785
     28 H3         -1.2116    1.7350    0.5131 H         1 <0>         0.1418
     29 H4          0.8079    3.0906    0.6634 H         1 <0>         0.1458
     30 H5         -1.8664   -0.9385    1.2514 H         1 <0>         0.1279
     31 H6         -1.9954   -0.7663   -0.5049 H         1 <0>         0.1079
     32 H7          2.2322   -1.8319   -1.9592 H         1 <0>         0.1192
     33 H8          1.6983   -3.4885   -1.5741 H         1 <0>         0.1097
     34 H9         -0.1082   -1.0460   -1.9055 H         1 <0>         0.1319
     35 H10         0.0606   -2.3836   -3.0648 H         1 <0>         0.1393
     36 H11        -3.0221   -3.0716   -1.2686 H         1 <0>         0.1355
     37 H12        -2.4183   -1.5083   -1.8682 H         1 <0>         0.1323
     38 H13        -1.6744   -3.9837   -3.5011 H         1 <0>         0.1257
     39 H14        -2.5597   -1.0437   -4.1411 H         1 <0>         0.1059
     40 H15        -1.9696   -2.2896   -5.3663 H         1 <0>         0.1108
     41 H16        -3.8874   -3.8232   -4.7304 H         1 <0>         0.1129
     42 H17        -4.4775   -2.5773   -3.5052 H         1 <0>         0.1078
     43 H18         1.8718   -4.0736    2.7439 H         1 <0>         0.1208
     44 H19         1.7811   -2.7239    3.8976 H         1 <0>         0.1111
     45 H20         0.2965   -1.4521    2.3583 H         1 <0>         0.0987
     46 H21        -0.3620   -3.0631    2.7449 H         1 <0>         0.0955
     47 H22        -0.0114   -4.8375    1.0014 H         1 <0>         0.3955
     48 H23         3.5936    2.3840    1.5637 H         1 <0>         0.4013
     49 H24        -0.7373   -3.8580   -1.3711 H         1 <0>         0.4280
@<TRIPOS>BOND
     1    1    6 ar
     2    1    2 ar
     3    1   28 1
     4    2    3 ar
     5    2   29 1
     6    3    4 ar
     7    3   27 1
     8    4   21 1
     9    4    5 ar
    10    5   11 1
    11    5    6 ar
    12    6    7 1
    13    7    8 1
    14    7   30 1
    15    7   31 1
    16    8    9 1
    17    8   14 1
    18    8   10 1
    19   10   25 1
    20   10   11 1
    21   10   26 1
    22   11   12 1
    23   11   19 1
    24   12   13 1
    25   12   32 1
    26   12   33 1
    27   13   14 1
    28   13   34 1
    29   13   35 1
    30   14   15 1
    31   14   49 1
    32   15   16 1
    33   15   36 1
    34   15   37 1
    35   16   18 1
    36   16   17 1
    37   16   38 1
    38   17   18 1
    39   17   39 1
    40   17   40 1
    41   18   41 1
    42   18   42 1
    43   19   20 1
    44   19   21 1
    45   19   22 1
    46   22   23 2
    47   22   24 1
    48   24   25 1
    49   24   43 1
    50   24   44 1
    51   25   45 1
    52   25   46 1
    53   26   47 1
    54   27   48 1
@<TRIPOS>MOLECULE
ZINC03812984
   43    46     0     0     0
SMALL
USER_CHARGES
methylBLAHol
@<TRIPOS>ATOM
      1 C1         -2.7983    1.5746    2.5117 C.3       1 <0>        -0.0492
      2 C2         -2.8836    1.5590    0.0946 C.3       1 <0>        -0.0137
      3 C3         -2.1794    1.0201   -1.2058 C.3       1 <0>        -0.1260
      4 C4         -0.7576    1.5994   -1.2263 C.3       1 <0>        -0.0184
      5 C5         -0.0471    1.1494   -2.4971 C.3       1 <0>        -0.1096
      6 C6          1.3879    1.6819   -2.5009 C.3       1 <0>        -0.1248
      7 C7          2.1311    1.1511   -1.2732 C.3       1 <0>        -0.1197
      8 C8          1.4200    1.6218   -0.0028 C.3       1 <0>        -0.1140
      9 C9         -0.0127    1.0858    0.0080 C.3       1 <0>        -0.0868
     10 H1          0.0021   -0.0041    0.0020 H         1 <0>         0.1005
     11 C10        -0.7376    1.5857    1.2587 C.3       1 <0>         0.0368
     12 H2         -0.2470    1.1454    2.1268 H         1 <0>         0.1322
     13 C11        -0.6296    3.0942    1.3559 C.3       1 <0>        -0.0906
     14 C12        -0.8275    3.7825    0.0324 C.ar      1 <0>        -0.1118
     15 C13        -0.8645    3.1019   -1.1649 C.ar      1 <0>        -0.0525
     16 C14        -1.0059    3.7971   -2.3554 C.ar      1 <0>        -0.1389
     17 C15        -1.1227    5.1776   -2.3507 C.ar      1 <0>         0.1246
     18 C16        -1.1001    5.8624   -1.1445 C.ar      1 <0>        -0.1373
     19 C17        -0.9542    5.1667    0.0366 C.ar      1 <0>        -0.0934
     20 O1         -1.2582    5.8565   -3.5201 O.3       1 <0>        -0.4965
     21 H3         -2.7772    2.6625    2.5756 H         1 <0>         0.1254
     22 H4         -3.8328    1.2313    2.5006 H         1 <0>         0.1236
     23 H5         -2.2838    1.1498    3.3736 H         1 <0>         0.1231
     24 H6         -3.8977    1.1640    0.1553 H         1 <0>         0.1274
     25 H7         -2.9199    2.6475    0.0505 H         1 <0>         0.1324
     26 H8         -2.7194    1.3346   -2.0989 H         1 <0>         0.1139
     27 H9         -2.1344   -0.0682   -1.1643 H         1 <0>         0.0929
     28 H10        -0.5796    1.5352   -3.3664 H         1 <0>         0.0775
     29 H11        -0.0300    0.0602   -2.5361 H         1 <0>         0.0764
     30 H12         1.3713    2.7714   -2.4727 H         1 <0>         0.0675
     31 H13         1.8966    1.3495   -3.4057 H         1 <0>         0.0729
     32 H14         3.1542    1.5269   -1.2774 H         1 <0>         0.0739
     33 H15         2.1443    0.0615   -1.2996 H         1 <0>         0.0675
     34 H16         1.4005    2.7114    0.0201 H         1 <0>         0.0786
     35 H17         1.9539    1.2495    0.8716 H         1 <0>         0.0744
     36 H18         0.3629    3.3369    1.7355 H         1 <0>         0.1193
     37 H19        -1.3763    3.4612    2.0602 H         1 <0>         0.0962
     38 H20        -1.0247    3.2597   -3.2921 H         1 <0>         0.1368
     39 H21        -1.1963    6.9380   -1.1308 H         1 <0>         0.1364
     40 H22        -0.9386    5.7022    0.9743 H         1 <0>         0.1313
     41 H23        -0.4191    6.1273   -3.9172 H         1 <0>         0.4003
     42 N1         -2.1333    1.0997    1.2905 N.4       1 <0>        -0.3877
     43 H24        -2.1230    0.0730    1.2965 H         1 <0>         0.4294
@<TRIPOS>BOND
     1    1   21 1
     2    1   22 1
     3    1   23 1
     4    1   42 1
     5    2    3 1
     6    2   24 1
     7    2   25 1
     8    2   42 1
     9    3    4 1
    10    3   26 1
    11    3   27 1
    12    4    9 1
    13    4   15 1
    14    4    5 1
    15    5    6 1
    16    5   28 1
    17    5   29 1
    18    6    7 1
    19    6   30 1
    20    6   31 1
    21    7    8 1
    22    7   32 1
    23    7   33 1
    24    8    9 1
    25    8   34 1
    26    8   35 1
    27    9   10 1
    28    9   11 1
    29   11   12 1
    30   11   13 1
    31   11   42 1
    32   13   14 1
    33   13   36 1
    34   13   37 1
    35   14   19 ar
    36   14   15 ar
    37   15   16 ar
    38   16   17 ar
    39   16   38 1
    40   17   18 ar
    41   17   20 1
    42   18   19 ar
    43   18   39 1
    44   19   40 1
    45   20   41 1
    46   42   43 1
@<TRIPOS>MOLECULE
ZINC03870315
   53    56     0     0     0
SMALL
USER_CHARGES
ethyl-[(1-hydroxycyclopropyl)methyl]-dimethyl-BLAHol
@<TRIPOS>ATOM
      1 C1         -2.5286    1.7344    2.0183 C.3       1 <0>        -0.1723
      2 C2         -1.1631    2.4222    2.0758 C.3       1 <0>        -0.1153
      3 C3         -0.2802    1.8987    0.9412 C.3       1 <0>        -0.0106
      4 C4         -0.2512    0.3599    0.9440 C.3       1 <0>        -0.1406
      5 C5          0.7262   -0.0909   -0.1473 C.3       1 <0>        -0.0045
      6 C6          0.1214    1.8433   -1.5047 C.3       1 <0>         0.0364
      7 H1         -0.3118    2.1017   -2.4710 H         1 <0>         0.1313
      8 C7         -0.8222    2.3559   -0.4171 C.3       1 <0>        -0.0554
      9 C8         -0.8799    3.8842   -0.4620 C.3       1 <0>        -0.1495
     10 C9         -2.2228    1.7799   -0.6354 C.3       1 <0>        -0.1819
     11 C10         1.4584    2.5573   -1.4081 C.3       1 <0>        -0.0883
     12 C11         1.9444    2.6561    0.0129 C.ar      1 <0>        -0.1115
     13 C12         1.1444    2.3768    1.0978 C.ar      1 <0>        -0.0571
     14 C13         1.6392    2.5288    2.3838 C.ar      1 <0>        -0.1401
     15 C14         2.9435    2.9492    2.5872 C.ar      1 <0>         0.1246
     16 C15         3.7549    3.2161    1.4942 C.ar      1 <0>        -0.1370
     17 C16         3.2561    3.0692    0.2175 C.ar      1 <0>        -0.0939
     18 O1          3.4250    3.0987    3.8493 O.3       1 <0>        -0.4948
     19 C17         1.1272   -0.0926   -2.5328 C.3       1 <0>         0.0496
     20 C18         1.0004   -1.6133   -2.6434 C.3       1 <0>         0.0205
     21 C19         2.1705   -2.4585   -2.1364 C.3       1 <0>        -0.2001
     22 C20         1.9159   -2.3280   -3.6394 C.3       1 <0>        -0.1787
     23 O2         -0.3176   -2.1363   -2.4660 O.3       1 <0>        -0.5374
     24 H2         -2.4089    0.7205    1.6367 H         1 <0>         0.0621
     25 H3         -2.9593    1.6976    3.0189 H         1 <0>         0.0620
     26 H4         -3.1904    2.2953    1.3583 H         1 <0>         0.0682
     27 H5         -0.6887    2.2085    3.0336 H         1 <0>         0.0772
     28 H6         -1.2938    3.4989    1.9673 H         1 <0>         0.0808
     29 H7         -1.2471   -0.0286    0.7313 H         1 <0>         0.1033
     30 H8          0.0873   -0.0013    1.9151 H         1 <0>         0.1131
     31 H9          0.7778   -1.1796   -0.1617 H         1 <0>         0.1266
     32 H10         1.7155    0.3170    0.0600 H         1 <0>         0.1313
     33 H11        -1.2449    4.2055   -1.4375 H         1 <0>         0.0691
     34 H12        -1.5537    4.2453    0.3150 H         1 <0>         0.0805
     35 H13         0.1177    4.2905   -0.2954 H         1 <0>         0.0721
     36 H14        -2.2816    0.7880   -0.1874 H         1 <0>         0.0722
     37 H15        -2.9609    2.4331   -0.1699 H         1 <0>         0.0959
     38 H16        -2.4237    1.7083   -1.7043 H         1 <0>         0.0647
     39 H17         2.1951    2.0112   -1.9974 H         1 <0>         0.0924
     40 H18         1.3539    3.5621   -1.8174 H         1 <0>         0.1230
     41 H19         1.0043    2.3185    3.2318 H         1 <0>         0.1380
     42 H20         4.7750    3.5379    1.6431 H         1 <0>         0.1363
     43 H21         3.8902    3.2767   -0.6317 H         1 <0>         0.1316
     44 H22         3.8359    2.3014    4.2105 H         1 <0>         0.3984
     45 H23         0.8252    0.3667   -3.4741 H         1 <0>         0.1381
     46 H24         2.1624    0.1708   -2.3157 H         1 <0>         0.1437
     47 H25         3.0308   -1.9313   -1.7240 H         1 <0>         0.1123
     48 H26         1.9352   -3.4138   -1.6672 H         1 <0>         0.1141
     49 H27         1.5130   -3.1974   -4.1590 H         1 <0>         0.1168
     50 H28         2.6083   -1.7147   -4.2161 H         1 <0>         0.1148
     51 H29        -0.3721   -3.0989   -2.5403 H         1 <0>         0.4105
     52 N1          0.2275    0.3689   -1.4661 N.4       1 <0>        -0.3792
     53 H30        -0.7047   -0.0320   -1.6222 H         1 <0>         0.4368
@<TRIPOS>BOND
     1    1    2 1
     2    1   24 1
     3    1   25 1
     4    1   26 1
     5    2    3 1
     6    2   27 1
     7    2   28 1
     8    3    8 1
     9    3   13 1
    10    3    4 1
    11    4    5 1
    12    4   29 1
    13    4   30 1
    14    5   31 1
    15    5   32 1
    16    5   52 1
    17    6    7 1
    18    6    8 1
    19    6   11 1
    20    6   52 1
    21    8    9 1
    22    8   10 1
    23    9   33 1
    24    9   34 1
    25    9   35 1
    26   10   36 1
    27   10   37 1
    28   10   38 1
    29   11   12 1
    30   11   39 1
    31   11   40 1
    32   12   17 ar
    33   12   13 ar
    34   13   14 ar
    35   14   15 ar
    36   14   41 1
    37   15   16 ar
    38   15   18 1
    39   16   17 ar
    40   16   42 1
    41   17   43 1
    42   18   44 1
    43   19   20 1
    44   19   45 1
    45   19   46 1
    46   19   52 1
    47   20   22 1
    48   20   21 1
    49   20   23 1
    50   21   22 1
    51   21   47 1
    52   21   48 1
    53   22   49 1
    54   22   50 1
    55   23   51 1
    56   52   53 1
@<TRIPOS>MOLECULE
ZINC04393014
   68    74     0     0     0
SMALL
USER_CHARGES
N-(cyclopropylmethyl-dihydroxy-BLAHyl)-3-(3-furyl)-N-methyl-prop-2-enamide
@<TRIPOS>ATOM
      1 C1         -0.5892    8.1423    0.0517 C.3       1 <0>         0.0715
      2 N1          0.8743    8.0763    0.0378 N.am      1 <0>        -0.6164
      3 C2          1.6632    9.3107    0.0374 C.3       1 <0>         0.1287
      4 H1          2.7173    9.0404   -0.0258 H         1 <0>         0.1096
      5 C3          1.4374   10.0178    1.3535 C.3       1 <0>        -0.1206
      6 C4          2.0624   11.4125    1.3535 C.3       1 <0>        -0.1384
      7 C5          1.3571   12.2422    0.2857 C.3       1 <0>         0.1460
      8 C6          1.9268   13.6584    0.2220 C.3       1 <0>         0.0189
      9 H2          1.7430   14.1243    1.1902 H         1 <0>         0.1387
     10 C7          3.4198   13.7238   -0.0524 C.3       1 <0>        -0.0861
     11 C8          3.8992   12.6425   -0.9660 C.ar      1 <0>        -0.0604
     12 C9          5.2034   12.5012   -1.4074 C.ar      1 <0>        -0.1158
     13 C10         5.5623   11.4137   -2.1864 C.ar      1 <0>        -0.0971
     14 C11         4.6693   10.4082   -2.5513 C.ar      1 <0>         0.1099
     15 C12         3.3464   10.5448   -2.1174 C.ar      1 <0>         0.1079
     16 C13         3.0130   11.6824   -1.3942 C.ar      1 <0>        -0.1873
     17 C14         1.5390   11.6002   -1.0776 C.3       1 <0>        -0.0285
     18 C15         1.3014   10.1053   -1.2011 C.3       1 <0>         0.0991
     19 H3          0.2782    9.8964   -1.5132 H         1 <0>         0.1341
     20 O1          2.2709    9.7357   -2.2339 O.3       1 <0>        -0.2766
     21 C16         0.7592   12.3987   -2.1242 C.3       1 <0>        -0.1235
     22 C17         1.3039   13.8328   -2.1296 C.3       1 <0>        -0.0022
     23 C18         1.6093   15.8309   -0.8002 C.3       1 <0>         0.0256
     24 C19         0.6577   16.6430   -1.6811 C.3       1 <0>        -0.2116
     25 C20         1.2412   17.2980   -2.9346 C.3       1 <0>        -0.1675
     26 C21         0.8592   18.1590   -1.7280 C.3       1 <0>        -0.1484
     27 O2          5.0661    9.3415   -3.2956 O.3       1 <0>        -0.4803
     28 O3         -0.0364   12.3066    0.5957 O.3       1 <0>        -0.5458
     29 C22         1.4948    6.8799    0.0255 C.2       1 <0>         0.5635
     30 O4          2.7109    6.8251    0.0140 O.2       1 <0>        -0.5430
     31 C23         0.7312    5.6852    0.0260 C.2       1 <0>        -0.2576
     32 C24         1.3533    4.4858    0.0137 C.2       1 <0>         0.0558
     33 C25         0.5623    3.2483    0.0141 C.2       1 <0>        -0.1938
     34 C26         1.0702    1.8678    0.0019 C.2       1 <0>        -0.1949
     35 C27        -0.0126    1.0758    0.0080 C.2       1 <0>        -0.0281
     36 O5         -1.1171    1.8384    0.0168 O.3       1 <0>        -0.1741
     37 C28        -0.8002    3.1379    0.0266 C.2       1 <0>         0.0116
     38 H4         -0.9427    8.1530    1.0827 H         1 <0>         0.0632
     39 H5         -0.9167    9.0506   -0.4542 H         1 <0>         0.0707
     40 H6         -0.9970    7.2724   -0.4632 H         1 <0>         0.0812
     41 H7          0.3656   10.1077    1.5303 H         1 <0>         0.0845
     42 H8          1.8815    9.4283    2.1555 H         1 <0>         0.0860
     43 H9          3.1251   11.3403    1.1222 H         1 <0>         0.0919
     44 H10         1.9284   11.8775    2.3302 H         1 <0>         0.0917
     45 H11         3.9536   13.6440    0.8947 H         1 <0>         0.1263
     46 H12         3.6493   14.6896   -0.5025 H         1 <0>         0.1040
     47 H13         5.9438   13.2419   -1.1438 H         1 <0>         0.1390
     48 H14         6.5844   11.3413   -2.5275 H         1 <0>         0.1429
     49 H15         0.8960   11.9490   -3.1077 H         1 <0>         0.1162
     50 H16        -0.2999   12.4078   -1.8667 H         1 <0>         0.1062
     51 H17         0.7347   14.4326   -2.8399 H         1 <0>         0.1338
     52 H18         2.3521   13.8176   -2.4282 H         1 <0>         0.1327
     53 H19         1.5865   16.2226    0.2167 H         1 <0>         0.1319
     54 H20         2.6224   15.9047   -1.1955 H         1 <0>         0.1324
     55 H21        -0.3646   16.2692   -1.7380 H         1 <0>         0.1247
     56 H22         2.3030   17.1503   -3.1318 H         1 <0>         0.1059
     57 H23         0.6027   17.3554   -3.8162 H         1 <0>         0.1103
     58 H24        -0.0305   18.7825   -1.8162 H         1 <0>         0.1123
     59 H25         1.6694   18.5777   -1.1311 H         1 <0>         0.1075
     60 H26         5.3772    8.5904   -2.7719 H         1 <0>         0.4007
     61 H27        -0.2302   12.7063    1.4547 H         1 <0>         0.3925
     62 H28        -0.3477    5.7339    0.0362 H         1 <0>         0.1275
     63 H29         2.4321    4.4371    0.0035 H         1 <0>         0.1388
     64 H30         2.1040    1.5555   -0.0092 H         1 <0>         0.1589
     65 H31         0.0021   -0.0041    0.0020 H         1 <0>         0.2096
     66 H32        -1.5010    3.9595    0.0380 H         1 <0>         0.2082
     67 N2          1.1521   14.4290   -0.7815 N.4       1 <0>        -0.3857
     68 H33         0.1594   14.4062   -0.5202 H         1 <0>         0.4311
@<TRIPOS>BOND
     1    1    2 1
     2    1   38 1
     3    1   39 1
     4    1   40 1
     5    2    3 1
     6    2   29 am
     7    3    4 1
     8    3   18 1
     9    3    5 1
    10    5    6 1
    11    5   41 1
    12    5   42 1
    13    6    7 1
    14    6   43 1
    15    6   44 1
    16    7   17 1
    17    7    8 1
    18    7   28 1
    19    8    9 1
    20    8   10 1
    21    8   67 1
    22   10   11 1
    23   10   45 1
    24   10   46 1
    25   11   16 ar
    26   11   12 ar
    27   12   13 ar
    28   12   47 1
    29   13   14 ar
    30   13   48 1
    31   14   15 ar
    32   14   27 1
    33   15   20 1
    34   15   16 ar
    35   16   17 1
    36   17   18 1
    37   17   21 1
    38   18   19 1
    39   18   20 1
    40   21   22 1
    41   21   49 1
    42   21   50 1
    43   22   51 1
    44   22   52 1
    45   22   67 1
    46   23   24 1
    47   23   53 1
    48   23   54 1
    49   23   67 1
    50   24   26 1
    51   24   25 1
    52   24   55 1
    53   25   26 1
    54   25   56 1
    55   25   57 1
    56   26   58 1
    57   26   59 1
    58   27   60 1
    59   28   61 1
    60   29   30 2
    61   29   31 1
    62   31   32 2
    63   31   62 1
    64   32   33 1
    65   32   63 1
    66   33   37 2
    67   33   34 1
    68   34   35 2
    69   34   64 1
    70   35   36 1
    71   35   65 1
    72   36   37 1
    73   37   66 1
    74   67   68 1
@<TRIPOS>MOLECULE
ZINC03783617
   61    63     0     0     0
SMALL
USER_CHARGES
3-[1-(3-cyclohexyl-3-hydroxy-propyl)-3,4-dimethyl-4-piperidyl]phenol
@<TRIPOS>ATOM
      1 C1          1.2753   -5.9874    6.3433 C.3       1 <0>        -0.1675
      2 C2          2.1716   -6.6399    5.2888 C.3       1 <0>        -0.1036
      3 H1          2.0043   -7.7169    5.2850 H         1 <0>         0.1202
      4 C3          1.8388   -6.0662    3.9097 C.3       1 <0>        -0.0004
      5 C4          3.4972   -4.3189    4.1726 C.3       1 <0>        -0.0076
      6 C5          3.8795   -4.8404    5.5597 C.3       1 <0>        -0.1427
      7 C6          3.6396   -6.3517    5.6154 C.3       1 <0>        -0.0184
      8 C7          4.5376   -7.0513    4.5932 C.3       1 <0>        -0.1534
      9 C8          3.9575   -6.8615    6.9974 C.ar      1 <0>        -0.0653
     10 C9          4.4861   -6.0044    7.9453 C.ar      1 <0>        -0.1325
     11 C10         4.7744   -6.4679    9.2154 C.ar      1 <0>        -0.0937
     12 C11         4.5446   -7.7916    9.5377 C.ar      1 <0>        -0.1405
     13 C12         4.0194   -8.6546    8.5872 C.ar      1 <0>         0.1174
     14 C13         3.7260   -8.1857    7.3147 C.ar      1 <0>        -0.1410
     15 O1          3.7921   -9.9569    8.9019 O.3       1 <0>        -0.4983
     16 C14         1.6449   -4.0113    2.6446 C.3       1 <0>        -0.0030
     17 C15         1.6822   -2.4870    2.7710 C.3       1 <0>        -0.1869
     18 C16         1.2248   -1.8548    1.4549 C.3       1 <0>         0.1168
     19 H2          0.2430   -2.2447    1.1864 H         1 <0>         0.1096
     20 C17         1.1426   -0.3360    1.6202 C.3       1 <0>        -0.1184
     21 C18         0.5670    0.2853    0.3460 C.3       1 <0>        -0.1114
     22 C19         0.4848    1.8041    0.5113 C.3       1 <0>        -0.1228
     23 C20         1.8850    2.3661    0.7652 C.3       1 <0>        -0.1238
     24 C21         2.4606    1.7448    2.0394 C.3       1 <0>        -0.1194
     25 C22         2.5428    0.2260    1.8741 C.3       1 <0>        -0.1204
     26 O2          2.1615   -2.1716    0.4233 O.3       1 <0>        -0.5536
     27 H3          0.2355   -6.2510    6.1498 H         1 <0>         0.0750
     28 H4          1.5618   -6.3421    7.3334 H         1 <0>         0.0875
     29 H5          1.3901   -4.9045    6.2980 H         1 <0>         0.0489
     30 H6          0.7904   -6.2572    3.6802 H         1 <0>         0.1310
     31 H7          2.4677   -6.5419    3.1572 H         1 <0>         0.1341
     32 H8          4.1182   -4.8028    3.4188 H         1 <0>         0.1338
     33 H9          3.6533   -3.2409    4.1342 H         1 <0>         0.1291
     34 H10         3.2683   -4.3468    6.3152 H         1 <0>         0.0944
     35 H11         4.9323   -4.6319    5.7500 H         1 <0>         0.1165
     36 H12         4.3085   -6.6804    3.5942 H         1 <0>         0.0581
     37 H13         5.5823   -6.8457    4.8264 H         1 <0>         0.0740
     38 H14         4.3618   -8.1264    4.6307 H         1 <0>         0.0729
     39 H15         4.6703   -4.9703    7.6940 H         1 <0>         0.1268
     40 H16         5.1833   -5.7956    9.9552 H         1 <0>         0.1317
     41 H17         4.7742   -8.1543   10.5288 H         1 <0>         0.1334
     42 H18         3.3173   -8.8557    6.5727 H         1 <0>         0.1279
     43 H19         4.5435  -10.5404    8.7285 H         1 <0>         0.3976
     44 H20         0.6275   -4.3326    2.4214 H         1 <0>         0.1295
     45 H21         2.3098   -4.3256    1.8401 H         1 <0>         0.1373
     46 H22         2.6996   -2.1657    2.9941 H         1 <0>         0.0921
     47 H23         1.0173   -2.1728    3.5754 H         1 <0>         0.0960
     48 H24         0.4965   -0.0969    2.4649 H         1 <0>         0.0817
     49 H25        -0.4306   -0.1150    0.1652 H         1 <0>         0.0633
     50 H26         1.2131    0.0462   -0.4987 H         1 <0>         0.0715
     51 H27         0.0747    2.2467   -0.3964 H         1 <0>         0.0668
     52 H28        -0.1613    2.0432    1.3560 H         1 <0>         0.0617
     53 H29         2.5311    2.1270   -0.0795 H         1 <0>         0.0635
     54 H30         1.8264    3.4481    0.8829 H         1 <0>         0.0655
     55 H31         1.8145    1.9839    2.8841 H         1 <0>         0.0629
     56 H32         3.4582    2.1451    2.2202 H         1 <0>         0.0653
     57 H33         2.9529   -0.2166    2.7818 H         1 <0>         0.0582
     58 H34         3.1889   -0.0131    1.0294 H         1 <0>         0.0667
     59 H35         3.0586   -1.8544    0.5957 H         1 <0>         0.3776
     60 N1          2.0675   -4.6056    3.9296 N.4       1 <0>        -0.3948
     61 H36         1.5114   -4.1918    4.6871 H         1 <0>         0.4232
@<TRIPOS>BOND
     1    1    2 1
     2    1   27 1
     3    1   28 1
     4    1   29 1
     5    2    3 1
     6    2    7 1
     7    2    4 1
     8    4   30 1
     9    4   31 1
    10    4   60 1
    11    5    6 1
    12    5   32 1
    13    5   33 1
    14    5   60 1
    15    6    7 1
    16    6   34 1
    17    6   35 1
    18    7    8 1
    19    7    9 1
    20    8   36 1
    21    8   37 1
    22    8   38 1
    23    9   14 ar
    24    9   10 ar
    25   10   11 ar
    26   10   39 1
    27   11   12 ar
    28   11   40 1
    29   12   13 ar
    30   12   41 1
    31   13   14 ar
    32   13   15 1
    33   14   42 1
    34   15   43 1
    35   16   17 1
    36   16   44 1
    37   16   45 1
    38   16   60 1
    39   17   18 1
    40   17   46 1
    41   17   47 1
    42   18   19 1
    43   18   20 1
    44   18   26 1
    45   20   25 1
    46   20   21 1
    47   20   48 1
    48   21   22 1
    49   21   49 1
    50   21   50 1
    51   22   23 1
    52   22   51 1
    53   22   52 1
    54   23   24 1
    55   23   53 1
    56   23   54 1
    57   24   25 1
    58   24   55 1
    59   24   56 1
    60   25   57 1
    61   25   58 1
    62   26   59 1
    63   60   61 1
@<TRIPOS>MOLECULE
ZINC03982790
   53    57     0     0     0
SMALL
USER_CHARGES

@<TRIPOS>ATOM
      1 C1          0.1986    1.6622   -0.5094 C.ar      1 <0>        -0.1375
      2 C2          1.4169    2.2968   -0.3935 C.ar      1 <0>        -0.0938
      3 C3          2.5906    1.5612   -0.2788 C.ar      1 <0>        -0.1132
      4 C4          2.5300    0.1847   -0.2721 C.ar      1 <0>        -0.0517
      5 C5          1.3090   -0.4582   -0.3998 C.ar      1 <0>        -0.1391
      6 C6          0.1400    0.2762   -0.5169 C.ar      1 <0>         0.1246
      7 O1         -1.0562   -0.3571   -0.6387 O.3       1 <0>        -0.4965
      8 C7          3.7662   -0.6615   -0.1029 C.3       1 <0>        -0.0200
      9 C8          3.6321   -1.9631   -0.8827 C.3       1 <0>        -0.1091
     10 C9          3.4978   -1.6555   -2.3764 C.3       1 <0>        -0.1245
     11 C10         4.7327   -0.8872   -2.8514 C.3       1 <0>        -0.1196
     12 C11         4.8509    0.4246   -2.0725 C.3       1 <0>        -0.1142
     13 C12         4.9930    0.1195   -0.5802 C.3       1 <0>        -0.0850
     14 H1          5.8939   -0.4698   -0.4093 H         1 <0>         0.1023
     15 C13         5.0497    1.4273    0.2098 C.3       1 <0>         0.0287
     16 H2          5.9691    1.9420   -0.0693 H         1 <0>         0.1352
     17 C14         3.8858    2.3206   -0.1787 C.3       1 <0>        -0.0939
     18 N1          5.0969    1.1839    1.6446 N.4       1 <0>        -0.3688
     19 C15         3.9465    0.4061    2.1109 C.3       1 <0>        -0.0194
     20 C16         3.9387   -0.9522    1.3951 C.3       1 <0>        -0.1338
     21 C17         5.1166    2.4740    2.3468 C.3       1 <0>        -0.0071
     22 C18         5.3354    2.2373    3.8424 C.3       1 <0>        -0.1435
     23 C19         4.0334    1.9990    4.6253 C.3       1 <0>        -0.1476
     24 C20         4.6402    2.8628    5.7436 C.3       1 <0>        -0.1419
     25 C21         5.4940    3.5336    4.6545 C.3       1 <0>        -0.1253
     26 H3         -0.7086    2.2427   -0.5897 H         1 <0>         0.1361
     27 H4          1.4598    3.3759   -0.3921 H         1 <0>         0.1310
     28 H5          1.2685   -1.5374   -0.4084 H         1 <0>         0.1370
     29 H6         -1.3134   -0.5394   -1.5529 H         1 <0>         0.4003
     30 H7          4.5165   -2.5783   -0.7169 H         1 <0>         0.0759
     31 H8          2.7474   -2.5008   -0.5419 H         1 <0>         0.0770
     32 H9          3.4139   -2.5886   -2.9334 H         1 <0>         0.0725
     33 H10         2.6067   -1.0506   -2.5441 H         1 <0>         0.0674
     34 H11         5.6238   -1.4916   -2.6820 H         1 <0>         0.0673
     35 H12         4.6383   -0.6703   -3.9155 H         1 <0>         0.0734
     36 H13         5.7274    0.9737   -2.4163 H         1 <0>         0.0743
     37 H14         3.9572    1.0266   -2.2369 H         1 <0>         0.0788
     38 H15         4.1005    2.7813   -1.1429 H         1 <0>         0.1198
     39 H16         3.7779    3.1057    0.5697 H         1 <0>         0.0954
     40 H17         4.0353    0.2352    3.1838 H         1 <0>         0.1334
     41 H18         3.0290    0.9582    1.9071 H         1 <0>         0.1340
     42 H19         3.0970   -1.5428    1.7569 H         1 <0>         0.1121
     43 H20         4.8703   -1.4928    1.5624 H         1 <0>         0.0976
     44 H21         5.9263    3.0891    1.9540 H         1 <0>         0.1321
     45 H22         4.1658    2.9849    2.1950 H         1 <0>         0.1314
     46 H23         6.1099    1.4976    4.0451 H         1 <0>         0.1117
     47 H24         3.1551    2.4441    4.1578 H         1 <0>         0.0910
     48 H25         3.8803    0.9585    4.9117 H         1 <0>         0.0789
     49 H26         3.9232    3.5364    6.2129 H         1 <0>         0.0808
     50 H27         5.2239    2.2935    6.4671 H         1 <0>         0.0897
     51 H28         6.5200    3.7319    4.9645 H         1 <0>         0.0829
     52 H29         5.0150    4.3981    4.1950 H         1 <0>         0.0917
     53 H30         5.9433    0.6804    1.8638 H         1 <0>         0.4210
@<TRIPOS>BOND
     1    1    6 ar
     2    1    2 ar
     3    1   26 1
     4    2    3 ar
     5    2   27 1
     6    3   17 1
     7    3    4 ar
     8    4    5 ar
     9    4    8 1
    10    5    6 ar
    11    5   28 1
    12    6    7 1
    13    7   29 1
    14    8   13 1
    15    8   20 1
    16    8    9 1
    17    9   10 1
    18    9   30 1
    19    9   31 1
    20   10   11 1
    21   10   32 1
    22   10   33 1
    23   11   12 1
    24   11   34 1
    25   11   35 1
    26   12   13 1
    27   12   36 1
    28   12   37 1
    29   13   14 1
    30   13   15 1
    31   15   16 1
    32   15   17 1
    33   15   18 1
    34   17   38 1
    35   17   39 1
    36   18   19 1
    37   18   21 1
    38   18   53 1
    39   19   20 1
    40   19   40 1
    41   19   41 1
    42   20   42 1
    43   20   43 1
    44   21   22 1
    45   21   44 1
    46   21   45 1
    47   22   25 1
    48   22   23 1
    49   22   46 1
    50   23   24 1
    51   23   47 1
    52   23   48 1
    53   24   25 1
    54   24   49 1
    55   24   50 1
    56   25   51 1
    57   25   52 1
@<TRIPOS>MOLECULE
ZINC03995327
   51    55     0     0     0
SMALL
USER_CHARGES

@<TRIPOS>ATOM
      1 C1         -0.0215    1.4454   -0.4090 C.3       1 <0>        -0.0489
      2 N1         -0.0003   -0.0173   -0.2748 N.4       1 <0>        -0.3816
      3 C2          0.7149   -0.6040   -1.4160 C.3       1 <0>        -0.0339
      4 C3          0.6400   -2.1279   -1.3236 C.3       1 <0>        -0.1333
      5 C4          1.2966   -2.6029   -0.0237 C.3       1 <0>        -0.0171
      6 C5          1.0632   -4.1090    0.1134 C.3       1 <0>        -0.0650
      7 C6          1.4838   -4.5968    1.4757 C.ar      1 <0>         0.1613
      8 C7          1.6450   -3.7302    2.5492 C.ar      1 <0>        -0.1351
      9 C8          2.0188   -4.2226    3.7739 C.ar      1 <0>        -0.0511
     10 C9          2.2397   -5.6034    3.9080 C.ar      1 <0>        -0.1008
     11 C10         2.6265   -6.1724    5.1318 C.ar      1 <0>        -0.0998
     12 C11         2.8328   -7.5157    5.2137 C.ar      1 <0>        -0.1069
     13 C12         2.6649   -8.3339    4.0981 C.ar      1 <0>        -0.0917
     14 C13         2.2900   -7.8158    2.8970 C.ar      1 <0>        -0.0958
     15 C14         2.0659   -6.4333    2.7727 C.ar      1 <0>         0.1374
     16 N2          1.6952   -5.8926    1.6122 N.ar      1 <0>        -0.4715
     17 C15         1.4376   -2.2452    2.4300 C.3       1 <0>        -0.0660
     18 C16         0.6381   -1.9013    1.1708 C.3       1 <0>        -0.0926
     19 H1         -0.3923   -2.2397    1.2796 H         1 <0>         0.1098
     20 C17         0.6851   -0.3847    0.9679 C.3       1 <0>        -0.0332
     21 C18         2.7721   -2.2977   -0.0506 C.ar      1 <0>        -0.0574
     22 C19         3.2050   -0.9886   -0.1574 C.ar      1 <0>        -0.1753
     23 C20         4.5578   -0.7054   -0.1824 C.ar      1 <0>        -0.0886
     24 C21         5.4810   -1.7301   -0.1012 C.ar      1 <0>        -0.1409
     25 C22         5.0494   -3.0440    0.0060 C.ar      1 <0>         0.1306
     26 C23         3.6910   -3.3252    0.0370 C.ar      1 <0>        -0.1356
     27 O1          5.9555   -4.0537    0.0861 O.3       1 <0>        -0.4951
     28 H2          1.0007    1.8230   -0.4328 H         1 <0>         0.1210
     29 H3         -0.5312    1.7181   -1.3331 H         1 <0>         0.1268
     30 H4         -0.5499    1.8805    0.4393 H         1 <0>         0.1258
     31 H5          0.2525   -0.2721   -2.3456 H         1 <0>         0.1366
     32 H6          1.7580   -0.2884   -1.3937 H         1 <0>         0.1488
     33 H7         -0.4040   -2.4408   -1.3375 H         1 <0>         0.0985
     34 H8          1.1603   -2.5684   -2.1742 H         1 <0>         0.1192
     35 H9          0.0042   -4.3221   -0.0323 H         1 <0>         0.0980
     36 H10         1.6411   -4.6319   -0.6486 H         1 <0>         0.1019
     37 H11         2.1413   -3.5612    4.6188 H         1 <0>         0.1399
     38 H12         2.7598   -5.5483    6.0031 H         1 <0>         0.1325
     39 H13         3.1308   -7.9528    6.1552 H         1 <0>         0.1333
     40 H14         2.8355   -9.3965    4.1883 H         1 <0>         0.1357
     41 H15         2.1646   -8.4642    2.0425 H         1 <0>         0.1385
     42 H16         0.8964   -1.8881    3.3062 H         1 <0>         0.0898
     43 H17         2.4080   -1.7510    2.3839 H         1 <0>         0.0897
     44 H18         1.7242   -0.0594    0.9169 H         1 <0>         0.1484
     45 H19         0.1962    0.1073    1.8088 H         1 <0>         0.1358
     46 H20         2.4849   -0.1863   -0.2217 H         1 <0>         0.1272
     47 H21         4.8934    0.3178   -0.2659 H         1 <0>         0.1330
     48 H22         6.5378   -1.5084   -0.1215 H         1 <0>         0.1357
     49 H23         3.3524   -4.3469    0.1252 H         1 <0>         0.1387
     50 H24         6.2193   -4.2746    0.9897 H         1 <0>         0.3985
     51 H25        -0.9464   -0.3673   -0.2538 H         1 <0>         0.4248
@<TRIPOS>BOND
     1    1    2 1
     2    1   28 1
     3    1   29 1
     4    1   30 1
     5    2   20 1
     6    2    3 1
     7    2   51 1
     8    3    4 1
     9    3   31 1
    10    3   32 1
    11    4    5 1
    12    4   33 1
    13    4   34 1
    14    5   18 1
    15    5    6 1
    16    5   21 1
    17    6    7 1
    18    6   35 1
    19    6   36 1
    20    7   16 ar
    21    7    8 ar
    22    8    9 ar
    23    8   17 1
    24    9   10 ar
    25    9   37 1
    26   10   15 ar
    27   10   11 ar
    28   11   12 ar
    29   11   38 1
    30   12   13 ar
    31   12   39 1
    32   13   14 ar
    33   13   40 1
    34   14   15 ar
    35   14   41 1
    36   15   16 ar
    37   17   18 1
    38   17   42 1
    39   17   43 1
    40   18   19 1
    41   18   20 1
    42   20   44 1
    43   20   45 1
    44   21   26 ar
    45   21   22 ar
    46   22   23 ar
    47   22   46 1
    48   23   24 ar
    49   23   47 1
    50   24   25 ar
    51   24   48 1
    52   25   26 ar
    53   25   27 1
    54   26   49 1
    55   27   50 1
@<TRIPOS>MOLECULE
ZINC03995327
   52    56     0     0     0
SMALL
USER_CHARGES

@<TRIPOS>ATOM
      1 C1         -0.0215    1.4454   -0.4090 C.3       1 <0>        -0.0513
      2 N1         -0.0003   -0.0173   -0.2748 N.4       1 <0>        -0.3822
      3 C2          0.7149   -0.6040   -1.4160 C.3       1 <0>        -0.0349
      4 C3          0.6400   -2.1279   -1.3236 C.3       1 <0>        -0.1347
      5 C4          1.2966   -2.6029   -0.0237 C.3       1 <0>        -0.0111
      6 C5          1.0632   -4.1090    0.1134 C.3       1 <0>        -0.1096
      7 C6          1.4838   -4.5968    1.4757 C.ar      1 <0>         0.2344
      8 C7          1.6450   -3.7302    2.5492 C.ar      1 <0>        -0.1285
      9 C8          2.0188   -4.2226    3.7739 C.ar      1 <0>         0.0541
     10 C9          2.2397   -5.6034    3.9080 C.ar      1 <0>        -0.0838
     11 C10         2.6265   -6.1724    5.1318 C.ar      1 <0>        -0.0633
     12 C11         2.8328   -7.5157    5.2137 C.ar      1 <0>        -0.0902
     13 C12         2.6649   -8.3339    4.0981 C.ar      1 <0>        -0.0194
     14 C13         2.2900   -7.8158    2.8971 C.ar      1 <0>        -0.1464
     15 C14         2.0659   -6.4333    2.7727 C.ar      1 <0>         0.1461
     16 N2          1.6952   -5.8926    1.6122 N.ar      1 <0>        -0.4619
     17 C15         1.4376   -2.2452    2.4300 C.3       1 <0>        -0.0729
     18 C16         0.6381   -1.9013    1.1708 C.3       1 <0>        -0.0992
     19 H1         -0.3923   -2.2397    1.2796 H         1 <0>         0.1184
     20 C17         0.6851   -0.3847    0.9679 C.3       1 <0>        -0.0333
     21 C18         2.7721   -2.2977   -0.0506 C.ar      1 <0>        -0.0715
     22 C19         3.2050   -0.9886   -0.1574 C.ar      1 <0>        -0.1684
     23 C20         4.5578   -0.7054   -0.1824 C.ar      1 <0>        -0.0752
     24 C21         5.4810   -1.7301   -0.1012 C.ar      1 <0>        -0.1316
     25 C22         5.0494   -3.0440    0.0060 C.ar      1 <0>         0.1378
     26 C23         3.6910   -3.3252    0.0370 C.ar      1 <0>        -0.1527
     27 O1          5.9555   -4.0537    0.0861 O.3       1 <0>        -0.4927
     28 H2          1.0007    1.8230   -0.4328 H         1 <0>         0.1238
     29 H3         -0.5312    1.7181   -1.3331 H         1 <0>         0.1316
     30 H4         -0.5499    1.8805    0.4393 H         1 <0>         0.1301
     31 H5          0.2525   -0.2721   -2.3456 H         1 <0>         0.1445
     32 H6          1.7580   -0.2884   -1.3937 H         1 <0>         0.1508
     33 H7         -0.4040   -2.4408   -1.3375 H         1 <0>         0.1037
     34 H8          1.1603   -2.5684   -2.1742 H         1 <0>         0.1244
     35 H9          0.0042   -4.3221   -0.0323 H         1 <0>         0.1351
     36 H10         1.6411   -4.6319   -0.6486 H         1 <0>         0.1255
     37 H11         2.1413   -3.5612    4.6188 H         1 <0>         0.1805
     38 H12         2.7598   -5.5483    6.0031 H         1 <0>         0.1635
     39 H13         3.1308   -7.9528    6.1552 H         1 <0>         0.1600
     40 H14         2.8355   -9.3965    4.1883 H         1 <0>         0.1624
     41 H15         2.1646   -8.4642    2.0425 H         1 <0>         0.1597
     42 H16         0.8964   -1.8881    3.3062 H         1 <0>         0.1138
     43 H17         2.4080   -1.7509    2.3839 H         1 <0>         0.1103
     44 H18         1.7242   -0.0594    0.9169 H         1 <0>         0.1514
     45 H19         0.1962    0.1073    1.8088 H         1 <0>         0.1439
     46 H20         2.4849   -0.1863   -0.2217 H         1 <0>         0.1333
     47 H21         4.8934    0.3178   -0.2659 H         1 <0>         0.1416
     48 H22         6.5378   -1.5084   -0.1215 H         1 <0>         0.1436
     49 H23         3.3524   -4.3469    0.1252 H         1 <0>         0.1175
     50 H24         6.2193   -4.2746    0.9897 H         1 <0>         0.4004
     51 H25        -0.9464   -0.3673   -0.2538 H         1 <0>         0.4269
     52 H26         1.5766   -6.4707    0.8423 H         1 <0>         0.4457
@<TRIPOS>BOND
     1    1    2 1
     2    1   28 1
     3    1   29 1
     4    1   30 1
     5    2   20 1
     6    2    3 1
     7    2   51 1
     8    3    4 1
     9    3   31 1
    10    3   32 1
    11    4    5 1
    12    4   33 1
    13    4   34 1
    14    5   18 1
    15    5    6 1
    16    5   21 1
    17    6    7 1
    18    6   35 1
    19    6   36 1
    20    7   16 ar
    21    7    8 ar
    22    8    9 ar
    23    8   17 1
    24    9   10 ar
    25    9   37 1
    26   10   15 ar
    27   10   11 ar
    28   11   12 ar
    29   11   38 1
    30   12   13 ar
    31   12   39 1
    32   13   14 ar
    33   13   40 1
    34   14   15 ar
    35   14   41 1
    36   15   16 ar
    37   16   52 1
    38   17   18 1
    39   17   42 1
    40   17   43 1
    41   18   19 1
    42   18   20 1
    43   20   44 1
    44   20   45 1
    45   21   26 ar
    46   21   22 ar
    47   22   23 ar
    48   22   46 1
    49   23   24 ar
    50   23   47 1
    51   24   25 ar
    52   24   48 1
    53   25   26 ar
    54   25   27 1
    55   26   49 1
    56   27   50 1
@<TRIPOS>MOLECULE
ZINC01553549
   42    43     0     0     0
SMALL
USER_CHARGES

@<TRIPOS>ATOM
      1 C1          3.7304    2.7228   -2.5053 C.3       1 <0>        -0.1071
      2 C2          3.1937    2.2004   -1.1975 C.ar      1 <0>        -0.0940
      3 C3          2.0511    1.4240   -1.1806 C.ar      1 <0>        -0.1103
      4 C4          1.5575    0.9429    0.0228 C.ar      1 <0>         0.0861
      5 C5          2.2078    1.2460    1.2100 C.ar      1 <0>        -0.1117
      6 C6          3.3532    2.0174    1.1925 C.ar      1 <0>        -0.1797
      7 C7          3.8470    2.4987   -0.0112 C.ar      1 <0>         0.1088
      8 O1          4.9714    3.2633   -0.0279 O.3       1 <0>        -0.3056
      9 C8          5.5260    3.6290    1.2373 C.3       1 <0>         0.1376
     10 H1          4.7205    3.7981    1.9519 H         1 <0>         0.0902
     11 C9          6.3478    4.9103    1.0827 C.3       1 <0>        -0.1403
     12 C10         5.4226    6.0662    0.6969 C.3       1 <0>        -0.0094
     13 C11         5.3543    8.4301    0.1775 C.3       1 <0>        -0.0434
     14 C12         6.4151    2.5191    1.7358 C.ar      1 <0>        -0.1358
     15 C13         7.2338    1.8400    0.8530 C.ar      1 <0>        -0.0908
     16 C14         8.0526    0.8247    1.3111 C.ar      1 <0>        -0.1177
     17 C15         8.0459    0.4825    2.6504 C.ar      1 <0>        -0.1026
     18 C16         7.2233    1.1581    3.5323 C.ar      1 <0>        -0.1162
     19 C17         6.4077    2.1762    3.0750 C.ar      1 <0>        -0.1079
     20 O2          0.4329    0.1786    0.0395 O.3       1 <0>        -0.4966
     21 H2          3.2861    3.6952   -2.7178 H         1 <0>         0.0686
     22 H3          4.8135    2.8249   -2.4386 H         1 <0>         0.0701
     23 H4          3.4796    2.0261   -3.3052 H         1 <0>         0.0706
     24 H5          1.5425    1.1914   -2.1045 H         1 <0>         0.1390
     25 H6          1.8206    0.8753    2.1476 H         1 <0>         0.1338
     26 H7          3.8618    2.2500    2.1164 H         1 <0>         0.1315
     27 H8          6.8428    5.1405    2.0261 H         1 <0>         0.1084
     28 H9          7.0973    4.7694    0.3039 H         1 <0>         0.1025
     29 H10         4.9275    5.8360   -0.2465 H         1 <0>         0.1389
     30 H11         4.6730    6.2071    1.4757 H         1 <0>         0.1317
     31 H12         5.9638    9.3279    0.0741 H         1 <0>         0.1264
     32 H13         4.8588    8.2163   -0.7695 H         1 <0>         0.1233
     33 H14         4.6043    8.5874    0.9526 H         1 <0>         0.1227
     34 H15         7.2363    2.1049   -0.1940 H         1 <0>         0.1255
     35 H16         8.6955    0.2971    0.6221 H         1 <0>         0.1278
     36 H17         8.6836   -0.3124    3.0078 H         1 <0>         0.1285
     37 H18         7.2181    0.8907    4.5786 H         1 <0>         0.1288
     38 H19         5.7650    2.7041    3.7640 H         1 <0>         0.1228
     39 H20         0.6007   -0.7700   -0.0443 H         1 <0>         0.3945
     40 N1          6.2222    7.2970    0.5498 N.4       1 <0>        -0.5191
     41 H21         6.9285    7.1566   -0.1821 H         1 <0>         0.4358
     42 H22         6.6889    7.5061    1.4402 H         1 <0>         0.4343
@<TRIPOS>BOND
     1    1    2 1
     2    1   21 1
     3    1   22 1
     4    1   23 1
     5    2    7 ar
     6    2    3 ar
     7    3    4 ar
     8    3   24 1
     9    4    5 ar
    10    4   20 1
    11    5    6 ar
    12    5   25 1
    13    6    7 ar
    14    6   26 1
    15    7    8 1
    16    8    9 1
    17    9   10 1
    18    9   11 1
    19    9   14 1
    20   11   12 1
    21   11   27 1
    22   11   28 1
    23   12   29 1
    24   12   30 1
    25   12   40 1
    26   13   31 1
    27   13   32 1
    28   13   33 1
    29   13   40 1
    30   14   19 ar
    31   14   15 ar
    32   15   16 ar
    33   15   34 1
    34   16   17 ar
    35   16   35 1
    36   17   18 ar
    37   17   36 1
    38   18   19 ar
    39   18   37 1
    40   19   38 1
    41   20   39 1
    42   40   41 1
    43   40   42 1
@<TRIPOS>MOLECULE
ZINC03874473
   61    66     0     0     0
SMALL
USER_CHARGES
N-(allyl-dihydroxy-BLAHylidene)aminobenzamide
@<TRIPOS>ATOM
      1 C1          7.6295   13.1139   -2.4643 C.2       1 <0>        -0.1035
      2 C2          6.7173   12.6014   -1.6762 C.2       1 <0>        -0.2364
      3 C3          5.7296   11.6003   -2.2179 C.3       1 <0>         0.0280
      4 C4          7.0851    9.7195   -1.5245 C.3       1 <0>        -0.0016
      5 C5          7.1485    8.5125   -0.5807 C.3       1 <0>        -0.1242
      6 C6          5.9986    7.5660   -0.9181 C.3       1 <0>        -0.0285
      7 C7          6.0945    7.1560   -2.3667 C.ar      1 <0>        -0.1894
      8 C8          5.5777    7.8323   -3.4483 C.ar      1 <0>        -0.0603
      9 C9          5.8200    7.2650   -4.6867 C.ar      1 <0>        -0.1154
     10 C10         6.4859    6.0537   -4.7810 C.ar      1 <0>        -0.0977
     11 C11         6.9277    5.3373   -3.6711 C.ar      1 <0>         0.1121
     12 C12         6.7023    5.9098   -2.4138 C.ar      1 <0>         0.1096
     13 O1          6.9613    5.4684   -1.1643 O.3       1 <0>        -0.2580
     14 C13         6.1447    6.2195   -0.2290 C.3       1 <0>         0.1762
     15 H1          6.6258    6.3216    0.7438 H         1 <0>         0.1519
     16 C14         4.8344    5.4983   -0.1143 C.2       1 <0>         0.0499
     17 N1          4.8473    4.2214   -0.0243 N.2       1 <0>        -0.1787
     18 N2          3.6572    3.5245    0.2221 N.am      1 <0>        -0.5837
     19 C15         3.6503    2.1769    0.2089 C.2       1 <0>         0.5780
     20 O2          4.6769    1.5659   -0.0169 O.2       1 <0>        -0.4859
     21 C16         2.3948    1.4417    0.4688 C.ar      1 <0>        -0.1401
     22 C17         1.2142    2.1401    0.7284 C.ar      1 <0>        -0.0895
     23 C18         0.0456    1.4477    0.9693 C.ar      1 <0>        -0.1246
     24 C19         0.0420    0.0642    0.9546 C.ar      1 <0>        -0.0840
     25 C20         1.2087   -0.6342    0.6989 C.ar      1 <0>        -0.1213
     26 C21         2.3842    0.0458    0.4559 C.ar      1 <0>        -0.0523
     27 C22         3.5109    6.2020   -0.0941 C.3       1 <0>        -0.1129
     28 C23         3.5142    7.3472   -1.1088 C.3       1 <0>        -0.1345
     29 C24         4.6695    8.2904   -0.7782 C.3       1 <0>         0.1482
     30 C25         4.6733    9.4727   -1.7514 C.3       1 <0>         0.0183
     31 H2          3.7407   10.0204   -1.6161 H         1 <0>         0.1411
     32 C26         4.7733    9.0751   -3.2146 C.3       1 <0>        -0.0886
     33 O3          4.5258    8.7723    0.5594 O.3       1 <0>        -0.5415
     34 O4          7.5506    4.1357   -3.8032 O.3       1 <0>        -0.4783
     35 H3          7.6738   12.8191   -3.5024 H         1 <0>         0.1114
     36 H4          8.3373   13.8314   -2.0761 H         1 <0>         0.1239
     37 H5          6.6731   12.8963   -0.6381 H         1 <0>         0.1352
     38 H6          5.9832   11.3622   -3.2509 H         1 <0>         0.1326
     39 H7          4.7255   12.0226   -2.1783 H         1 <0>         0.1350
     40 H8          7.2309    9.3843   -2.5514 H         1 <0>         0.1332
     41 H9          7.8710   10.4267   -1.2595 H         1 <0>         0.1351
     42 H10         8.0992    7.9953   -0.7107 H         1 <0>         0.1203
     43 H11         7.0529    8.8492    0.4516 H         1 <0>         0.1091
     44 H12         5.4883    7.7678   -5.5831 H         1 <0>         0.1392
     45 H13         6.6718    5.6450   -5.7633 H         1 <0>         0.1433
     46 H14         2.8381    4.0120    0.4023 H         1 <0>         0.3880
     47 H15         1.2157    3.2200    0.7399 H         1 <0>         0.1189
     48 H16        -0.8694    1.9869    1.1655 H         1 <0>         0.1330
     49 H17        -0.8756   -0.4730    1.1438 H         1 <0>         0.1337
     50 H18         1.1991   -1.7141    0.6891 H         1 <0>         0.1372
     51 H19         3.2940   -0.5005    0.2557 H         1 <0>         0.1407
     52 H20         2.7212    5.4951   -0.3485 H         1 <0>         0.0848
     53 H21         3.3291    6.6025    0.9032 H         1 <0>         0.1050
     54 H22         3.6463    6.9453   -2.1133 H         1 <0>         0.0947
     55 H23         2.5697    7.8883   -1.0526 H         1 <0>         0.0949
     56 H24         3.7689    8.8916   -3.5962 H         1 <0>         0.1241
     57 H25         5.2101    9.9033   -3.7725 H         1 <0>         0.1060
     58 H26         3.7060    9.2608    0.7156 H         1 <0>         0.3931
     59 H27         6.9497    3.3781   -3.7947 H         1 <0>         0.4005
     60 N3          5.7734   10.3907   -1.3743 N.4       1 <0>        -0.3873
     61 H28         5.6529   10.6652   -0.3923 H         1 <0>         0.4322
@<TRIPOS>BOND
     1    1    2 2
     2    1   35 1
     3    1   36 1
     4    2    3 1
     5    2   37 1
     6    3   38 1
     7    3   39 1
     8    3   60 1
     9    4    5 1
    10    4   40 1
    11    4   41 1
    12    4   60 1
    13    5    6 1
    14    5   42 1
    15    5   43 1
    16    6   14 1
    17    6   29 1
    18    6    7 1
    19    7   12 ar
    20    7    8 ar
    21    8   32 1
    22    8    9 ar
    23    9   10 ar
    24    9   44 1
    25   10   11 ar
    26   10   45 1
    27   11   12 ar
    28   11   34 1
    29   12   13 1
    30   13   14 1
    31   14   15 1
    32   14   16 1
    33   16   17 2
    34   16   27 1
    35   17   18 1
    36   18   19 am
    37   18   46 1
    38   19   20 2
    39   19   21 1
    40   21   26 ar
    41   21   22 ar
    42   22   23 ar
    43   22   47 1
    44   23   24 ar
    45   23   48 1
    46   24   25 ar
    47   24   49 1
    48   25   26 ar
    49   25   50 1
    50   26   51 1
    51   27   28 1
    52   27   52 1
    53   27   53 1
    54   28   29 1
    55   28   54 1
    56   28   55 1
    57   29   30 1
    58   29   33 1
    59   30   31 1
    60   30   32 1
    61   30   60 1
    62   32   56 1
    63   32   57 1
    64   33   58 1
    65   34   59 1
    66   60   61 1
@<TRIPOS>MOLECULE
ZINC00607289
   51    53     0     0     0
SMALL
USER_CHARGES

@<TRIPOS>ATOM
      1 C1         -0.5664    1.5629    0.4635 C.3       1 <0>         0.0474
      2 N1         -0.1670    0.1850    0.1670 N.am      1 <0>        -0.6317
      3 C2          0.1346   -0.7418    1.2608 C.3       1 <0>         0.1670
      4 H1          0.3080   -1.7385    0.8551 H         1 <0>         0.1306
      5 C3         -1.0461   -0.7851    2.2328 C.3       1 <0>        -0.0144
      6 N2         -2.2724   -1.1246    1.4987 N.4       1 <0>        -0.3941
      7 C4         -2.2123   -2.5306    1.0236 C.3       1 <0>        -0.0119
      8 C5         -3.7022   -2.8948    0.8044 C.3       1 <0>        -0.1435
      9 C6         -4.4102   -2.1731    1.9740 C.3       1 <0>        -0.1441
     10 C7         -3.4428   -1.0534    2.4003 C.3       1 <0>        -0.0096
     11 C8          1.3682   -0.2744    1.9894 C.ar      1 <0>        -0.1208
     12 C9          2.4253   -1.1431    2.1866 C.ar      1 <0>        -0.0945
     13 C10         3.5568   -0.7144    2.8549 C.ar      1 <0>        -0.1121
     14 C11         3.6315    0.5831    3.3257 C.ar      1 <0>        -0.0981
     15 C12         2.5748    1.4521    3.1278 C.ar      1 <0>        -0.1150
     16 C13         1.4450    1.0247    2.4556 C.ar      1 <0>        -0.1155
     17 C14        -0.0770   -0.2301   -1.1121 C.2       1 <0>         0.5159
     18 O1          0.2537   -1.3709   -1.3576 O.2       1 <0>        -0.5053
     19 C15        -0.3872    0.7232   -2.2373 C.3       1 <0>        -0.0992
     20 C16        -0.2122    0.0167   -3.5569 C.ar      1 <0>        -0.0669
     21 C17         1.0177    0.0272   -4.1884 C.ar      1 <0>        -0.0850
     22 C18         1.1794   -0.6199   -5.3989 C.ar      1 <0>        -0.0926
     23 C19         0.1104   -1.2790   -5.9791 C.ar      1 <0>        -0.0255
     24 C20        -1.1210   -1.2899   -5.3465 C.ar      1 <0>        -0.0302
     25 C21        -1.2798   -0.6460   -4.1324 C.ar      1 <0>        -0.0867
     26 Cl1        -2.4636   -2.1160   -6.0736 Cl        1 <0>        -0.0403
     27 Cl2         0.3128   -2.0915   -7.4998 Cl        1 <0>        -0.0362
     28 H2          0.3232    2.1757    0.6094 H         1 <0>         0.0828
     29 H3         -1.1484    1.9595   -0.3684 H         1 <0>         0.0929
     30 H4         -1.1712    1.5788    1.3702 H         1 <0>         0.0716
     31 H5         -0.8598   -1.5392    2.9974 H         1 <0>         0.1466
     32 H6         -1.1637    0.1902    2.7052 H         1 <0>         0.1350
     33 H7         -1.6583   -2.5969    0.0872 H         1 <0>         0.1371
     34 H8         -1.7665   -3.1742    1.7819 H         1 <0>         0.1363
     35 H9         -4.0553   -2.5142   -0.1540 H         1 <0>         0.0971
     36 H10        -3.8495   -3.9728    0.8705 H         1 <0>         0.1186
     37 H11        -5.3565   -1.7483    1.6391 H         1 <0>         0.1058
     38 H12        -4.5762   -2.8645    2.8001 H         1 <0>         0.1055
     39 H13        -3.1268   -1.2085    3.4319 H         1 <0>         0.1328
     40 H14        -3.9301   -0.0836    2.3002 H         1 <0>         0.1316
     41 H15         2.3669   -2.1569    1.8188 H         1 <0>         0.1266
     42 H16         4.3823   -1.3934    3.0096 H         1 <0>         0.1316
     43 H17         4.5152    0.9179    3.8485 H         1 <0>         0.1308
     44 H18         2.6330    2.4658    3.4959 H         1 <0>         0.1300
     45 H19         0.6210    1.7047    2.2977 H         1 <0>         0.1272
     46 H20        -1.4160    1.0714   -2.1452 H         1 <0>         0.1115
     47 H21         0.2905    1.5754   -2.1887 H         1 <0>         0.1174
     48 H22         1.8525    0.5417   -3.7357 H         1 <0>         0.1373
     49 H23         2.1402   -0.6107   -5.8920 H         1 <0>         0.1475
     50 H24        -2.2391   -0.6575   -3.6364 H         1 <0>         0.1369
     51 H25        -2.3960   -0.4975    0.7180 H         1 <0>         0.4215
@<TRIPOS>BOND
     1    1    2 1
     2    1   28 1
     3    1   29 1
     4    1   30 1
     5    2    3 1
     6    2   17 am
     7    3    4 1
     8    3    5 1
     9    3   11 1
    10    5    6 1
    11    5   31 1
    12    5   32 1
    13    6   10 1
    14    6    7 1
    15    6   51 1
    16    7    8 1
    17    7   33 1
    18    7   34 1
    19    8    9 1
    20    8   35 1
    21    8   36 1
    22    9   10 1
    23    9   37 1
    24    9   38 1
    25   10   39 1
    26   10   40 1
    27   11   16 ar
    28   11   12 ar
    29   12   13 ar
    30   12   41 1
    31   13   14 ar
    32   13   42 1
    33   14   15 ar
    34   14   43 1
    35   15   16 ar
    36   15   44 1
    37   16   45 1
    38   17   18 2
    39   17   19 1
    40   19   20 1
    41   19   46 1
    42   19   47 1
    43   20   25 ar
    44   20   21 ar
    45   21   22 ar
    46   21   48 1
    47   22   23 ar
    48   22   49 1
    49   23   24 ar
    50   23   27 1
    51   24   25 ar
    52   24   26 1
    53   25   50 1
@<TRIPOS>MOLECULE
ZINC02517042
   59    62     0     0     0
SMALL
USER_CHARGES

@<TRIPOS>ATOM
      1 C1          0.2448    1.1223   -0.1423 C.3       1 <0>         0.0578
      2 N1          0.0632   -0.3228    0.0153 N.am      1 <0>        -0.6354
      3 C2          0.0106   -0.9126    1.3553 C.3       1 <0>         0.1233
      4 H1         -0.1318   -1.9901    1.2725 H         1 <0>         0.1267
      5 C3          1.3219   -0.6268    2.0899 C.3       1 <0>        -0.1215
      6 C4          1.2690   -1.2477    3.4876 C.3       1 <0>        -0.1292
      7 C5          0.0981   -0.6496    4.2664 C.3       1 <0>         0.1192
      8 C6          0.2992    0.8733    4.4050 C.3       1 <0>        -0.1537
      9 C7         -0.1962    1.1392    5.8531 C.3       1 <0>        -0.1581
     10 C8          0.2428   -0.1685    6.5593 C.3       1 <0>         0.0465
     11 O1          0.0492   -1.2054    5.5834 O.3       1 <0>        -0.3611
     12 C9         -1.2143   -0.9235    3.5328 C.3       1 <0>        -0.1428
     13 C10        -1.1559   -0.3028    2.1351 C.3       1 <0>         0.0163
     14 H2         -1.0118    0.7742    2.2213 H         1 <0>         0.1419
     15 N2         -2.4137   -0.5737    1.4263 N.4       1 <0>        -0.3874
     16 C11        -2.6982   -2.0315    1.4268 C.3       1 <0>        -0.0229
     17 C12        -4.2274   -2.0943    1.1852 C.3       1 <0>        -0.1411
     18 C13        -4.7546   -0.8847    1.9907 C.3       1 <0>        -0.1423
     19 C14        -3.5461    0.0584    2.1373 C.3       1 <0>        -0.0168
     20 C15        -0.0554   -1.1097   -1.0724 C.2       1 <0>         0.5138
     21 O2         -0.2057   -2.3061   -0.9419 O.2       1 <0>        -0.5097
     22 C16        -0.0013   -0.5030   -2.4509 C.3       1 <0>        -0.0979
     23 C17        -0.1571   -1.5889   -3.4841 C.ar      1 <0>        -0.0834
     24 C18         0.9584   -2.2422   -3.9738 C.ar      1 <0>        -0.1025
     25 C19         0.8155   -3.2383   -4.9216 C.ar      1 <0>        -0.1141
     26 C20        -0.4429   -3.5814   -5.3794 C.ar      1 <0>        -0.1106
     27 C21        -1.5585   -2.9288   -4.8890 C.ar      1 <0>        -0.1172
     28 C22        -1.4159   -1.9356   -3.9380 C.ar      1 <0>        -0.1080
     29 H3          1.3091    1.3508   -0.1986 H         1 <0>         0.0767
     30 H4         -0.2466    1.4525   -1.0575 H         1 <0>         0.0880
     31 H5         -0.1931    1.6388    0.7118 H         1 <0>         0.0720
     32 H6          2.1526   -1.0584    1.5317 H         1 <0>         0.0943
     33 H7          1.4627    0.4507    2.1760 H         1 <0>         0.0811
     34 H8          1.1351   -2.3260    3.4014 H         1 <0>         0.0821
     35 H9          2.2003   -1.0381    4.0138 H         1 <0>         0.0902
     36 H10         1.3517    1.1369    4.3003 H         1 <0>         0.0915
     37 H11        -0.3110    1.4129    3.6808 H         1 <0>         0.0768
     38 H12         0.3030    2.0061    6.2861 H         1 <0>         0.0923
     39 H13        -1.2794    1.2568    5.8823 H         1 <0>         0.0788
     40 H14         1.2928   -0.1097    6.8456 H         1 <0>         0.0705
     41 H15        -0.3793   -0.3525    7.4353 H         1 <0>         0.0943
     42 H16        -1.3648   -1.9996    3.4468 H         1 <0>         0.1017
     43 H17        -2.0411   -0.4844    4.0911 H         1 <0>         0.0986
     44 H18        -2.1605   -2.5287    0.6195 H         1 <0>         0.1406
     45 H19        -2.4425   -2.4730    2.3900 H         1 <0>         0.1402
     46 H20        -4.4554   -1.9809    0.1254 H         1 <0>         0.0967
     47 H21        -4.6411   -3.0254    1.5724 H         1 <0>         0.1181
     48 H22        -5.5578   -0.3885    1.4459 H         1 <0>         0.1057
     49 H23        -5.1044   -1.2067    2.9715 H         1 <0>         0.1050
     50 H24        -3.2990    0.1842    3.1915 H         1 <0>         0.1331
     51 H25        -3.7731    1.0254    1.6885 H         1 <0>         0.1313
     52 H26        -0.8081    0.2216   -2.5608 H         1 <0>         0.1056
     53 H27         0.9574   -0.0034   -2.5905 H         1 <0>         0.1108
     54 H28         1.9416   -1.9741   -3.6162 H         1 <0>         0.1196
     55 H29         1.6871   -3.7482   -5.3048 H         1 <0>         0.1262
     56 H30        -0.5545   -4.3591   -6.1204 H         1 <0>         0.1260
     57 H31        -2.5416   -3.1966   -5.2468 H         1 <0>         0.1246
     58 H32        -2.2877   -1.4283   -3.5521 H         1 <0>         0.1151
     59 H33        -2.3612   -0.2288    0.4795 H         1 <0>         0.4223
@<TRIPOS>BOND
     1    1    2 1
     2    1   29 1
     3    1   30 1
     4    1   31 1
     5    2    3 1
     6    2   20 am
     7    3    4 1
     8    3   13 1
     9    3    5 1
    10    5    6 1
    11    5   32 1
    12    5   33 1
    13    6    7 1
    14    6   34 1
    15    6   35 1
    16    7   11 1
    17    7    8 1
    18    7   12 1
    19    8    9 1
    20    8   36 1
    21    8   37 1
    22    9   10 1
    23    9   38 1
    24    9   39 1
    25   10   11 1
    26   10   40 1
    27   10   41 1
    28   12   13 1
    29   12   42 1
    30   12   43 1
    31   13   14 1
    32   13   15 1
    33   15   19 1
    34   15   16 1
    35   15   59 1
    36   16   17 1
    37   16   44 1
    38   16   45 1
    39   17   18 1
    40   17   46 1
    41   17   47 1
    42   18   19 1
    43   18   48 1
    44   18   49 1
    45   19   50 1
    46   19   51 1
    47   20   21 2
    48   20   22 1
    49   22   23 1
    50   22   52 1
    51   22   53 1
    52   23   28 ar
    53   23   24 ar
    54   24   25 ar
    55   24   54 1
    56   25   26 ar
    57   25   55 1
    58   26   27 ar
    59   26   56 1
    60   27   28 ar
    61   27   57 1
    62   28   58 1
@<TRIPOS>MOLECULE
ZINC00643032
   51    53     0     0     0
SMALL
USER_CHARGES

@<TRIPOS>ATOM
      1 C1          0.1306    1.7085    0.1467 C.3       1 <0>         0.0574
      2 N1          0.0612    0.2513    0.0119 N.am      1 <0>        -0.6347
      3 C2          0.1236   -0.5984    1.2037 C.3       1 <0>         0.1238
      4 H1          0.1481   -1.6456    0.9024 H         1 <0>         0.1243
      5 C3         -1.1091   -0.3469    2.0745 C.3       1 <0>        -0.1255
      6 C4         -1.0439   -1.2343    3.3191 C.3       1 <0>        -0.1279
      7 C5          0.2196   -0.9032    4.1159 C.3       1 <0>        -0.1185
      8 C6          1.4522   -1.1547    3.2452 C.3       1 <0>        -0.1397
      9 C7          1.3870   -0.2673    2.0005 C.3       1 <0>         0.0187
     10 H2          1.3626    0.7800    2.3018 H         1 <0>         0.1398
     11 N2          2.5705   -0.5087    1.1645 N.4       1 <0>        -0.3894
     12 C8          3.8089   -0.2489    1.9425 C.3       1 <0>        -0.0140
     13 C9          4.8859   -1.0554    1.1743 C.3       1 <0>        -0.1435
     14 C10         4.1220   -2.3279    0.7419 C.3       1 <0>        -0.1414
     15 C11         2.6339   -1.9326    0.7693 C.3       1 <0>        -0.0209
     16 C12        -0.0601   -0.3075   -1.2085 C.2       1 <0>         0.5142
     17 O1         -0.1176   -1.5138   -1.3201 O.2       1 <0>        -0.5086
     18 C13        -0.1243    0.5666   -2.4345 C.3       1 <0>        -0.0996
     19 C14        -0.2585   -0.2981   -3.6614 C.ar      1 <0>        -0.0664
     20 C15         0.8729   -0.7471   -4.3173 C.ar      1 <0>        -0.0908
     21 C16         0.7513   -1.5398   -5.4429 C.ar      1 <0>        -0.0952
     22 C17        -0.5030   -1.8848   -5.9137 C.ar      1 <0>        -0.0261
     23 C18        -1.6358   -1.4355   -5.2567 C.ar      1 <0>        -0.0280
     24 C19        -1.5122   -0.6464   -4.1271 C.ar      1 <0>        -0.0826
     25 Cl1        -3.2105   -1.8671   -5.8466 Cl        1 <0>        -0.0367
     26 Cl2        -0.6564   -2.8799   -7.3279 Cl        1 <0>        -0.0364
     27 H3          1.1744    2.0216    0.1725 H         1 <0>         0.0581
     28 H4         -0.3681    2.1761   -0.7022 H         1 <0>         0.0929
     29 H5         -0.3627    2.0118    1.0702 H         1 <0>         0.0851
     30 H6         -1.1336    0.7003    2.3758 H         1 <0>         0.0783
     31 H7         -2.0092   -0.5828    1.5068 H         1 <0>         0.0881
     32 H8         -1.9221   -1.0551    3.9395 H         1 <0>         0.0857
     33 H9         -1.0194   -2.2815    3.0178 H         1 <0>         0.0734
     34 H10         0.1951    0.1440    4.4172 H         1 <0>         0.0767
     35 H11         0.2660   -1.5354    5.0027 H         1 <0>         0.0893
     36 H12         2.3523   -0.9188    3.8129 H         1 <0>         0.0948
     37 H13         1.4767   -2.2019    2.9439 H         1 <0>         0.0913
     38 H14         4.0492    0.8143    1.9393 H         1 <0>         0.1348
     39 H15         3.7067   -0.6182    2.9629 H         1 <0>         0.1394
     40 H16         5.2351   -0.5006    0.3035 H         1 <0>         0.0970
     41 H17         5.7185   -1.3095    1.8304 H         1 <0>         0.1179
     42 H18         4.4168   -2.6223   -0.2653 H         1 <0>         0.1047
     43 H19         4.3108   -3.1396    1.4446 H         1 <0>         0.1045
     44 H20         2.1006   -2.5440    1.4971 H         1 <0>         0.1344
     45 H21         2.1968   -2.0630   -0.2207 H         1 <0>         0.1322
     46 H22        -0.9854    1.2310   -2.3623 H         1 <0>         0.1159
     47 H23         0.7873    1.1598   -2.5059 H         1 <0>         0.1122
     48 H24         1.8522   -0.4780   -3.9500 H         1 <0>         0.1333
     49 H25         1.6354   -1.8896   -5.9551 H         1 <0>         0.1461
     50 H26        -2.3954   -0.2990   -3.6118 H         1 <0>         0.1406
     51 H27         2.5438    0.0790    0.3448 H         1 <0>         0.4210
@<TRIPOS>BOND
     1    1    2 1
     2    1   27 1
     3    1   28 1
     4    1   29 1
     5    2    3 1
     6    2   16 am
     7    3    4 1
     8    3    9 1
     9    3    5 1
    10    5    6 1
    11    5   30 1
    12    5   31 1
    13    6    7 1
    14    6   32 1
    15    6   33 1
    16    7    8 1
    17    7   34 1
    18    7   35 1
    19    8    9 1
    20    8   36 1
    21    8   37 1
    22    9   10 1
    23    9   11 1
    24   11   15 1
    25   11   12 1
    26   11   51 1
    27   12   13 1
    28   12   38 1
    29   12   39 1
    30   13   14 1
    31   13   40 1
    32   13   41 1
    33   14   15 1
    34   14   42 1
    35   14   43 1
    36   15   44 1
    37   15   45 1
    38   16   17 2
    39   16   18 1
    40   18   19 1
    41   18   46 1
    42   18   47 1
    43   19   24 ar
    44   19   20 ar
    45   20   21 ar
    46   20   48 1
    47   21   22 ar
    48   21   49 1
    49   22   23 ar
    50   22   26 1
    51   23   24 ar
    52   23   25 1
    53   24   50 1
@<TRIPOS>MOLECULE
ZINC03995756
   64    69     0     0     0
SMALL
USER_CHARGES

@<TRIPOS>ATOM
      1 C1         -0.0807    1.4911   -0.4757 C.3       1 <0>         0.0321
      2 O1         -0.0472    0.0634   -0.5257 O.3       1 <0>        -0.3428
      3 C2         -1.2238   -0.5810   -0.3983 C.2       1 <0>         0.4887
      4 O2         -2.2497    0.0518   -0.2488 O.2       1 <0>        -0.4945
      5 C3         -1.2659   -2.0551   -0.4402 C.2       1 <0>        -0.0858
      6 C4         -2.4382   -2.6971   -0.3132 C.2       1 <0>        -0.1244
      7 C5         -2.4803   -4.1727   -0.3552 C.2       1 <0>         0.5518
      8 O3         -1.4538   -4.8059   -0.5048 O.2       1 <0>        -0.5211
      9 N1         -3.6571   -4.8172   -0.2277 N.am      1 <0>        -0.7199
     10 C6         -3.6989   -6.2810   -0.2694 C.3       1 <0>         0.1361
     11 H1         -2.7931   -6.6609    0.2033 H         1 <0>         0.0985
     12 C7         -3.6958   -6.7145   -1.7169 C.3       1 <0>        -0.1249
     13 C8         -3.9395   -8.2165   -1.8569 C.3       1 <0>        -0.1369
     14 C9         -5.3319   -8.5192   -1.3122 C.3       1 <0>         0.1482
     15 C10        -5.6521  -10.0100   -1.4063 C.3       1 <0>         0.0136
     16 H2         -5.6239  -10.2909   -2.4591 H         1 <0>         0.1431
     17 C11        -4.6888  -10.9153   -0.6577 C.3       1 <0>        -0.0943
     18 C12        -4.1343  -10.2960    0.5836 C.ar      1 <0>        -0.0591
     19 C13        -3.2759  -10.9236    1.4699 C.ar      1 <0>        -0.1121
     20 C14        -2.7858  -10.2381    2.5693 C.ar      1 <0>        -0.0973
     21 C15        -3.0982   -8.9082    2.8446 C.ar      1 <0>         0.1116
     22 C16        -3.9738   -8.2665    1.9627 C.ar      1 <0>         0.1008
     23 C17        -4.4787   -9.0036    0.9006 C.ar      1 <0>        -0.1848
     24 C18        -5.4131   -8.1150    0.1484 C.3       1 <0>        -0.0286
     25 C19        -4.8911   -6.7464    0.5436 C.3       1 <0>         0.1019
     26 H3         -5.6872   -6.0019    0.5345 H         1 <0>         0.1360
     27 O4         -4.4387   -6.9990    1.9092 O.3       1 <0>        -0.2753
     28 C20        -6.8279   -8.3683    0.6712 C.3       1 <0>        -0.1227
     29 C21        -7.1427   -9.8586    0.4909 C.3       1 <0>        -0.0099
     30 N2         -7.0201  -10.2364   -0.9202 N.4       1 <0>        -0.3736
     31 C22        -7.3568  -11.6584   -1.0705 C.3       1 <0>         0.0182
     32 C23        -8.8324  -11.8721   -0.7272 C.3       1 <0>        -0.2105
     33 C24        -9.1562  -12.7537    0.4806 C.3       1 <0>        -0.1678
     34 C25        -9.4104  -13.2733   -0.9358 C.3       1 <0>        -0.1476
     35 O5         -2.5756   -8.2637    3.9220 O.3       1 <0>        -0.4800
     36 O6         -6.3032   -7.7862   -2.0612 O.3       1 <0>        -0.5447
     37 H4          0.9301    1.8825   -0.5905 H         1 <0>         0.1092
     38 H5         -0.7100    1.8682   -1.2819 H         1 <0>         0.0651
     39 H6         -0.4878    1.8116    0.4833 H         1 <0>         0.0653
     40 H7         -0.3537   -2.6178   -0.5731 H         1 <0>         0.1590
     41 H8         -3.3504   -2.1344   -0.1803 H         1 <0>         0.1491
     42 H9         -4.4764   -4.3118   -0.1084 H         1 <0>         0.4078
     43 H10        -4.4787   -6.1760   -2.2510 H         1 <0>         0.0848
     44 H11        -2.7309   -6.4680   -2.1599 H         1 <0>         0.0915
     45 H12        -3.8843   -8.5027   -2.9072 H         1 <0>         0.0926
     46 H13        -3.1922   -8.7661   -1.2845 H         1 <0>         0.0927
     47 H14        -5.2109  -11.8330   -0.3869 H         1 <0>         0.1071
     48 H15        -3.8618  -11.1696   -1.3206 H         1 <0>         0.1266
     49 H16        -2.9876  -11.9510    1.3037 H         1 <0>         0.1401
     50 H17        -2.1283  -10.7612    3.2480 H         1 <0>         0.1438
     51 H18        -6.8824   -8.1057    1.7276 H         1 <0>         0.1174
     52 H19        -7.5420   -7.7702    0.1052 H         1 <0>         0.1071
     53 H20        -6.4451  -10.4493    1.0847 H         1 <0>         0.1314
     54 H21        -8.1594  -10.0564    0.8305 H         1 <0>         0.1374
     55 H22        -7.1745  -11.9682   -2.0995 H         1 <0>         0.1350
     56 H23        -6.7376  -12.2515   -0.3975 H         1 <0>         0.1324
     57 H24        -9.4879  -11.0232   -0.9214 H         1 <0>         0.1253
     58 H25        -8.3180  -13.1813    1.0307 H         1 <0>         0.1058
     59 H26       -10.0250  -12.4847    1.0815 H         1 <0>         0.1107
     60 H27       -10.4464  -13.3462   -1.2668 H         1 <0>         0.1128
     61 H28        -8.7395  -14.0429   -1.3175 H         1 <0>         0.1077
     62 H29        -1.7380   -7.8146    3.7436 H         1 <0>         0.4002
     63 H30        -6.3130   -7.9966   -3.0050 H         1 <0>         0.3935
     64 H31        -7.6626   -9.6844   -1.4684 H         1 <0>         0.4268
@<TRIPOS>BOND
     1    1    2 1
     2    1   37 1
     3    1   38 1
     4    1   39 1
     5    2    3 1
     6    3    4 2
     7    3    5 1
     8    5    6 2
     9    5   40 1
    10    6    7 1
    11    6   41 1
    12    7    8 2
    13    7    9 am
    14    9   10 1
    15    9   42 1
    16   10   11 1
    17   10   25 1
    18   10   12 1
    19   12   13 1
    20   12   43 1
    21   12   44 1
    22   13   14 1
    23   13   45 1
    24   13   46 1
    25   14   24 1
    26   14   15 1
    27   14   36 1
    28   15   16 1
    29   15   30 1
    30   15   17 1
    31   17   18 1
    32   17   47 1
    33   17   48 1
    34   18   23 ar
    35   18   19 ar
    36   19   20 ar
    37   19   49 1
    38   20   21 ar
    39   20   50 1
    40   21   22 ar
    41   21   35 1
    42   22   27 1
    43   22   23 ar
    44   23   24 1
    45   24   25 1
    46   24   28 1
    47   25   26 1
    48   25   27 1
    49   28   29 1
    50   28   51 1
    51   28   52 1
    52   29   30 1
    53   29   53 1
    54   29   54 1
    55   30   31 1
    56   30   64 1
    57   31   32 1
    58   31   55 1
    59   31   56 1
    60   32   34 1
    61   32   33 1
    62   32   57 1
    63   33   34 1
    64   33   58 1
    65   33   59 1
    66   34   60 1
    67   34   61 1
    68   35   62 1
    69   36   63 1
@<TRIPOS>MOLECULE
ZINC01999400
   45    48     0     0     0
SMALL
USER_CHARGES
cyclopropylmethyl-hydroxy-dimethyl-BLAHone
@<TRIPOS>ATOM
      1 C1         -3.3096    0.8170    2.4176 C.3       1 <0>        -0.1625
      2 C2         -2.4131    0.5658    1.2035 C.3       1 <0>        -0.0916
      3 H1         -2.2710   -0.5066    1.0704 H         1 <0>         0.1158
      4 C3         -3.0690    1.1560   -0.0496 C.3       1 <0>         0.0072
      5 H2         -3.9427    0.6986   -0.2153 H         1 <0>         0.1382
      6 C4         -3.3126    2.6240    0.2093 C.2       1 <0>         0.3964
      7 O1         -4.3197    3.1670   -0.1933 O.2       1 <0>        -0.3997
      8 C5         -2.3114    3.3900    0.9517 C.ar      1 <0>        -0.2033
      9 C6         -2.4440    4.7785    1.0740 C.ar      1 <0>        -0.0260
     10 C7         -1.5239    5.4908    1.7897 C.ar      1 <0>        -0.1554
     11 C8         -0.4555    4.8394    2.3967 C.ar      1 <0>         0.1732
     12 C9         -0.3131    3.4620    2.2755 C.ar      1 <0>        -0.1555
     13 C10        -1.2333    2.7337    1.5514 C.ar      1 <0>        -0.0106
     14 C11        -1.0557    1.2422    1.4198 C.3       1 <0>        -0.0284
     15 C12        -0.1872    0.9762    0.1794 C.3       1 <0>        -0.1331
     16 C13        -0.8862    1.5938   -1.0359 C.3       1 <0>        -0.0141
     17 C14        -2.8547    1.4612   -2.4361 C.3       1 <0>         0.0239
     18 C15        -2.0592    0.9969   -3.6578 C.3       1 <0>        -0.2115
     19 C16        -1.4228    2.0747   -4.5377 C.3       1 <0>        -0.1677
     20 C17        -2.6438    1.3007   -5.0386 C.3       1 <0>        -0.1474
     21 C18        -0.3772    0.6706    2.6664 C.3       1 <0>        -0.1487
     22 O2          0.4518    5.5517    3.1109 O.3       1 <0>        -0.4914
     23 H3         -4.2783    0.3434    2.2582 H         1 <0>         0.0747
     24 H4         -2.8418    0.3967    3.3079 H         1 <0>         0.0910
     25 H5         -3.4475    1.8899    2.5517 H         1 <0>         0.0685
     26 H6         -3.2729    5.2859    0.6030 H         1 <0>         0.1453
     27 H7         -1.6261    6.5619    1.8839 H         1 <0>         0.1467
     28 H8          0.5187    2.9617    2.7491 H         1 <0>         0.1483
     29 H9         -0.0749   -0.0980    0.0325 H         1 <0>         0.1022
     30 H10         0.7932    1.4337    0.3117 H         1 <0>         0.1204
     31 H11        -1.0081    2.6655   -0.8787 H         1 <0>         0.1316
     32 H12        -0.2823    1.4240   -1.9272 H         1 <0>         0.1393
     33 H13        -3.8685    1.0647   -2.4906 H         1 <0>         0.1357
     34 H14        -2.8910    2.5504   -2.4186 H         1 <0>         0.1294
     35 H15        -1.5154    0.0600   -3.5365 H         1 <0>         0.1274
     36 H16        -1.5709    3.1146   -4.2462 H         1 <0>         0.1052
     37 H17        -0.4601    1.8471   -4.9954 H         1 <0>         0.1115
     38 H18        -2.4844    0.5639   -5.8259 H         1 <0>         0.1139
     39 H19        -3.5954    1.8310   -5.0767 H         1 <0>         0.1081
     40 H20         0.5948    1.1451    2.8009 H         1 <0>         0.0756
     41 H21        -0.9999    0.8640    3.5399 H         1 <0>         0.0768
     42 H22        -0.2433   -0.4045    2.5465 H         1 <0>         0.0756
     43 H23         1.1995    5.8725    2.5883 H         1 <0>         0.4070
     44 N1         -2.2008    0.9358   -1.2258 N.4       1 <0>        -0.3759
     45 H24        -2.0508   -0.0734   -1.3406 H         1 <0>         0.4339
@<TRIPOS>BOND
     1    1    2 1
     2    1   23 1
     3    1   24 1
     4    1   25 1
     5    2    3 1
     6    2   14 1
     7    2    4 1
     8    4    5 1
     9    4    6 1
    10    4   44 1
    11    6    7 2
    12    6    8 1
    13    8   13 ar
    14    8    9 ar
    15    9   10 ar
    16    9   26 1
    17   10   11 ar
    18   10   27 1
    19   11   12 ar
    20   11   22 1
    21   12   13 ar
    22   12   28 1
    23   13   14 1
    24   14   15 1
    25   14   21 1
    26   15   16 1
    27   15   29 1
    28   15   30 1
    29   16   31 1
    30   16   32 1
    31   16   44 1
    32   17   18 1
    33   17   33 1
    34   17   34 1
    35   17   44 1
    36   18   20 1
    37   18   19 1
    38   18   35 1
    39   19   20 1
    40   19   36 1
    41   19   37 1
    42   20   38 1
    43   20   39 1
    44   21   40 1
    45   21   41 1
    46   21   42 1
    47   22   43 1
    48   44   45 1
@<TRIPOS>MOLECULE
ZINC04102216
   48    51     0     0     0
SMALL
USER_CHARGES
cyclopropylmethyl-ethyl-hydroxy-methyl-BLAHone
@<TRIPOS>ATOM
      1 C1          1.3069    1.6986   -2.6142 C.3       1 <0>        -0.1635
      2 C2         -0.0946    1.0948   -2.5038 C.3       1 <0>        -0.1147
      3 C3         -0.6653    1.3814   -1.1134 C.3       1 <0>        -0.0251
      4 C4          0.1635    0.6518   -0.0435 C.3       1 <0>        -0.1352
      5 C5         -0.4644    0.9374    1.3244 C.3       1 <0>        -0.0166
      6 C6         -1.1804    3.1414    0.5750 C.3       1 <0>         0.0070
      7 H1         -1.1123    4.1159    0.7886 H         1 <0>         0.1373
      8 C7         -0.6028    2.8828   -0.8209 C.3       1 <0>        -0.0933
      9 H2          0.4334    3.2189   -0.8569 H         1 <0>         0.1181
     10 C8         -1.4245    3.6427   -1.8642 C.3       1 <0>        -0.1618
     11 C9         -2.6363    2.7397    0.5589 C.2       1 <0>         0.3979
     12 O1         -3.4667    3.3887    1.1593 O.2       1 <0>        -0.3992
     13 C10        -3.0229    1.5410   -0.2039 C.ar      1 <0>        -0.2011
     14 C11        -2.0877    0.8902   -1.0134 C.ar      1 <0>        -0.0108
     15 C12        -2.4632   -0.2151   -1.7283 C.ar      1 <0>        -0.1540
     16 C13        -3.7647   -0.6957   -1.6461 C.ar      1 <0>         0.1720
     17 C14        -4.6985   -0.0587   -0.8359 C.ar      1 <0>        -0.1557
     18 C15        -4.3337    1.0568   -0.1162 C.ar      1 <0>        -0.0259
     19 O2         -4.1258   -1.7917   -2.3594 O.3       1 <0>        -0.4914
     20 C16        -0.9376    2.6808    2.9334 C.3       1 <0>         0.0217
     21 C17        -0.3252    1.6953    3.9308 C.3       1 <0>        -0.2111
     22 C18        -1.2781    0.7512    4.6667 C.3       1 <0>        -0.1674
     23 C19        -0.6246    1.9147    5.4151 C.3       1 <0>        -0.1475
     24 H3          1.7533    1.4092   -3.5656 H         1 <0>         0.0698
     25 H4          1.2397    2.7852   -2.5601 H         1 <0>         0.0607
     26 H5          1.9261    1.3317   -1.7957 H         1 <0>         0.0591
     27 H6         -0.0392    0.0173   -2.6587 H         1 <0>         0.0814
     28 H7         -0.7418    1.5380   -3.2606 H         1 <0>         0.0827
     29 H8          0.1518   -0.4209   -0.2371 H         1 <0>         0.1202
     30 H9          1.1902    1.0174   -0.0607 H         1 <0>         0.1032
     31 H10        -1.4950    0.5825    1.3320 H         1 <0>         0.1323
     32 H11         0.1026    0.4212    2.0991 H         1 <0>         0.1407
     33 H12        -2.4611    3.3084   -1.8241 H         1 <0>         0.0687
     34 H13        -1.3790    4.7114   -1.6545 H         1 <0>         0.0744
     35 H14        -1.0186    3.4497   -2.8572 H         1 <0>         0.0908
     36 H15        -1.7442   -0.7165   -2.3592 H         1 <0>         0.1469
     37 H16        -5.7078   -0.4378   -0.7721 H         1 <0>         0.1472
     38 H17        -5.0551    1.5555    0.5141 H         1 <0>         0.1457
     39 H18        -3.9967   -2.6269   -1.8894 H         1 <0>         0.4067
     40 H19        -0.6541    3.6973    3.2064 H         1 <0>         0.1360
     41 H20        -2.0236    2.5891    2.9521 H         1 <0>         0.1294
     42 H21         0.6604    1.3115    3.6675 H         1 <0>         0.1282
     43 H22        -2.3413    0.8322    4.4403 H         1 <0>         0.1046
     44 H23        -0.9196   -0.2541    4.8876 H         1 <0>         0.1115
     45 H24         0.1639    1.6748    6.1284 H         1 <0>         0.1140
     46 H25        -1.2578    2.7611    5.6811 H         1 <0>         0.1079
     47 N1         -0.4068    2.3936    1.5904 N.4       1 <0>        -0.3759
     48 H26         0.5730    2.6975    1.5485 H         1 <0>         0.4340
@<TRIPOS>BOND
     1    1    2 1
     2    1   24 1
     3    1   25 1
     4    1   26 1
     5    2    3 1
     6    2   27 1
     7    2   28 1
     8    3    8 1
     9    3   14 1
    10    3    4 1
    11    4    5 1
    12    4   29 1
    13    4   30 1
    14    5   31 1
    15    5   32 1
    16    5   47 1
    17    6    7 1
    18    6    8 1
    19    6   11 1
    20    6   47 1
    21    8    9 1
    22    8   10 1
    23   10   33 1
    24   10   34 1
    25   10   35 1
    26   11   12 2
    27   11   13 1
    28   13   18 ar
    29   13   14 ar
    30   14   15 ar
    31   15   16 ar
    32   15   36 1
    33   16   17 ar
    34   16   19 1
    35   17   18 ar
    36   17   37 1
    37   18   38 1
    38   19   39 1
    39   20   21 1
    40   20   40 1
    41   20   41 1
    42   20   47 1
    43   21   23 1
    44   21   22 1
    45   21   42 1
    46   22   23 1
    47   22   43 1
    48   22   44 1
    49   23   45 1
    50   23   46 1
    51   47   48 1
@<TRIPOS>MOLECULE
ZINC03830613
   46    49     0     0     0
SMALL
USER_CHARGES

@<TRIPOS>ATOM
      1 C1         -0.3045    1.4999   -0.1559 C.3       1 <0>        -0.1545
      2 C2         -0.1403   -0.0193   -0.0800 C.3       1 <0>        -0.0889
      3 H1         -1.1203   -0.4924   -0.0160 H         1 <0>         0.1013
      4 C3          0.5943   -0.5212   -1.3221 C.3       1 <0>         0.0286
      5 H2         -0.0471   -0.3336   -2.1832 H         1 <0>         0.1368
      6 C4          1.8757    0.2680   -1.5223 C.3       1 <0>        -0.0946
      7 C5          2.6291    0.4612   -0.2339 C.ar      1 <0>        -0.1122
      8 C6          3.9306    0.9446   -0.3149 C.ar      1 <0>        -0.0943
      9 C7          4.6722    1.1594    0.8266 C.ar      1 <0>        -0.1367
     10 C8          4.1174    0.8937    2.0704 C.ar      1 <0>         0.1249
     11 C9          2.8234    0.4066    2.1516 C.ar      1 <0>        -0.1399
     12 C10         2.0851    0.1837    0.9993 C.ar      1 <0>        -0.0588
     13 C11         0.6938   -0.3887    1.1516 C.3       1 <0>        -0.0221
     14 C12         0.8320   -1.9218    1.1810 C.3       1 <0>        -0.1320
     15 C13         1.5913   -2.3444   -0.0815 C.3       1 <0>        -0.0206
     16 N1          0.8425   -1.9546   -1.2597 N.4       1 <0>        -0.3638
     17 C14         1.5793   -2.3654   -2.4623 C.3       1 <0>         0.0196
     18 C15         1.7041   -3.8901   -2.4880 C.3       1 <0>        -0.2098
     19 C16         3.1111   -4.4853   -2.4046 C.3       1 <0>        -0.1679
     20 C17         2.3402   -4.5260   -3.7256 C.3       1 <0>        -0.1485
     21 C18         0.0309    0.1321    2.4285 C.3       1 <0>        -0.1463
     22 O1          4.8391    1.1098    3.2015 O.3       1 <0>        -0.4966
     23 H3          0.6775    1.9687   -0.2197 H         1 <0>         0.0719
     24 H4         -0.8887    1.7587   -1.0389 H         1 <0>         0.0687
     25 H5         -0.8191    1.8548    0.7371 H         1 <0>         0.0800
     26 H6          2.5128   -0.2644   -2.2285 H         1 <0>         0.0953
     27 H7          1.6285    1.2449   -1.9378 H         1 <0>         0.1211
     28 H8          4.3644    1.1534   -1.2817 H         1 <0>         0.1314
     29 H9          5.6828    1.5332    0.7533 H         1 <0>         0.1366
     30 H10         2.3872    0.1992    3.1176 H         1 <0>         0.1377
     31 H11         1.3897   -2.2257    2.0668 H         1 <0>         0.1134
     32 H12        -0.1561   -2.3819    1.1895 H         1 <0>         0.0943
     33 H13         2.5640   -1.8529   -0.1017 H         1 <0>         0.1304
     34 H14         1.7315   -3.4254   -0.0760 H         1 <0>         0.1339
     35 H15         1.0426   -2.0297   -3.3496 H         1 <0>         0.1343
     36 H16         2.5740   -1.9196   -2.4489 H         1 <0>         0.1310
     37 H17         0.8965   -4.4361   -2.0003 H         1 <0>         0.1248
     38 H18         3.9479   -3.7907   -2.3314 H         1 <0>         0.1051
     39 H19         3.2294   -5.4231   -1.8618 H         1 <0>         0.1100
     40 H20         1.9515   -5.4907   -4.0519 H         1 <0>         0.1124
     41 H21         2.6699   -3.8582   -4.5215 H         1 <0>         0.1073
     42 H22        -0.9608   -0.3092    2.5289 H         1 <0>         0.0701
     43 H23         0.6390   -0.1408    3.2909 H         1 <0>         0.0713
     44 H24        -0.0579    1.2171    2.3752 H         1 <0>         0.0737
     45 H25         4.7394    1.9991    3.5678 H         1 <0>         0.4007
     46 H26        -0.0415   -2.4404   -1.2356 H         1 <0>         0.4206
@<TRIPOS>BOND
     1    1    2 1
     2    1   23 1
     3    1   24 1
     4    1   25 1
     5    2    3 1
     6    2   13 1
     7    2    4 1
     8    4    5 1
     9    4   16 1
    10    4    6 1
    11    6    7 1
    12    6   26 1
    13    6   27 1
    14    7   12 ar
    15    7    8 ar
    16    8    9 ar
    17    8   28 1
    18    9   10 ar
    19    9   29 1
    20   10   11 ar
    21   10   22 1
    22   11   12 ar
    23   11   30 1
    24   12   13 1
    25   13   14 1
    26   13   21 1
    27   14   15 1
    28   14   31 1
    29   14   32 1
    30   15   16 1
    31   15   33 1
    32   15   34 1
    33   16   17 1
    34   16   46 1
    35   17   18 1
    36   17   35 1
    37   17   36 1
    38   18   20 1
    39   18   19 1
    40   18   37 1
    41   19   20 1
    42   19   38 1
    43   19   39 1
    44   20   40 1
    45   20   41 1
    46   21   42 1
    47   21   43 1
    48   21   44 1
    49   22   45 1
@<TRIPOS>MOLECULE
ZINC03874479
   58    65     0     0     0
SMALL
USER_CHARGES
cyclopropylmethylBLAHdiol
@<TRIPOS>ATOM
      1 C1          2.9104    3.8420   -0.0057 C.ar      1 <0>        -0.1324
      2 C2          3.3419    2.5263   -0.0286 C.ar      1 <0>        -0.0968
      3 C3          2.4593    1.4607   -0.0259 C.ar      1 <0>        -0.1183
      4 C4          1.1008    1.7658    0.0010 C.ar      1 <0>         0.0897
      5 C5          0.6593    3.1181    0.0309 C.ar      1 <0>        -0.0740
      6 C6          1.5800    4.1739    0.0245 C.ar      1 <0>        -0.0773
      7 C7         -0.7700    3.0646    0.0598 C.2       1 <0>        -0.1678
      8 C8         -1.1262    1.7230    0.0162 C.2       1 <0>         0.0837
      9 N1         -0.0111    0.9658    0.0074 N.pl3     1 <0>        -0.5457
     10 H1          0.0021   -0.0041    0.0020 H         1 <0>         0.4221
     11 C9         -2.5816    1.5112   -0.0422 C.3       1 <0>         0.1626
     12 H2         -2.9244    2.0520   -0.9243 H         1 <0>         0.0952
     13 C10        -3.2046    2.2676    1.1373 C.3       1 <0>        -0.0563
     14 C11        -3.1720    1.6846    2.5425 C.3       1 <0>        -0.0910
     15 C12        -4.2373    2.5141    3.2967 C.3       1 <0>         0.0044
     16 C13        -3.9101    4.5273    1.8149 C.3       1 <0>         0.0571
     17 H3         -3.6274    5.5791    1.8584 H         1 <0>         0.1526
     18 C14        -2.7672    3.7006    1.2598 C.3       1 <0>         0.1355
     19 C15        -1.8510    4.1372    0.1494 C.3       1 <0>        -0.0443
     20 O1         -1.8811    3.6185    2.3779 O.3       1 <0>        -0.5614
     21 C16        -5.2504    4.4002    1.1160 C.3       1 <0>        -0.0933
     22 C17        -5.6062    3.0317    0.6566 C.ar      1 <0>        -0.0633
     23 C18        -4.6108    2.0940    0.6387 C.ar      1 <0>        -0.1732
     24 C19        -4.6380    0.8223    0.0560 C.ar      1 <0>         0.0717
     25 C20        -5.8678    0.3938   -0.4305 C.ar      1 <0>         0.1324
     26 C21        -6.9291    1.2962   -0.3389 C.ar      1 <0>        -0.1100
     27 C22        -6.8205    2.5836    0.1710 C.ar      1 <0>        -0.0947
     28 O2         -6.0291   -0.8442   -0.9698 O.3       1 <0>        -0.4801
     29 O3         -3.3534    0.3148    0.0205 O.3       1 <0>        -0.2585
     30 C23        -5.1376    4.6559    3.9286 C.3       1 <0>         0.0229
     31 C24        -5.1135    4.2203    5.3951 C.3       1 <0>        -0.2112
     32 C25        -6.3404    3.4811    5.9328 C.3       1 <0>        -0.1672
     33 C26        -6.0703    4.9267    6.3577 C.3       1 <0>        -0.1500
     34 H4          3.6459    4.6329   -0.0115 H         1 <0>         0.1235
     35 H5          4.4028    2.3253   -0.0496 H         1 <0>         0.1274
     36 H6          2.8081    0.4388   -0.0442 H         1 <0>         0.1326
     37 H7          1.2564    5.2041    0.0422 H         1 <0>         0.1293
     38 H8         -3.4418    0.6286    2.5279 H         1 <0>         0.1075
     39 H9         -2.1901    1.8240    2.9948 H         1 <0>         0.1214
     40 H10        -4.2192    2.2407    4.3517 H         1 <0>         0.1228
     41 H11        -5.2110    2.2438    2.8880 H         1 <0>         0.1230
     42 H12        -1.4044    5.1025    0.3877 H         1 <0>         0.1001
     43 H13        -2.4004    4.1970   -0.7902 H         1 <0>         0.0913
     44 H14        -1.4455    4.4537    2.5967 H         1 <0>         0.3794
     45 H15        -5.2463    5.0605    0.2487 H         1 <0>         0.1291
     46 H16        -6.0293    4.7446    1.7963 H         1 <0>         0.1068
     47 H17        -7.8984    0.9720   -0.6879 H         1 <0>         0.1444
     48 H18        -7.6832    3.2331    0.1888 H         1 <0>         0.1420
     49 H19        -6.2794   -1.5231   -0.3283 H         1 <0>         0.4014
     50 H20        -4.9723    5.7314    3.8662 H         1 <0>         0.1285
     51 H21        -6.1063    4.4113    3.4928 H         1 <0>         0.1331
     52 H22        -4.1382    3.9245    5.7816 H         1 <0>         0.1236
     53 H23        -7.1648    3.3051    5.2418 H         1 <0>         0.1050
     54 H24        -6.1724    2.6992    6.6734 H         1 <0>         0.1089
     55 H25        -5.7246    5.0952    7.3776 H         1 <0>         0.1113
     56 H26        -6.7166    5.7020    5.9462 H         1 <0>         0.1072
     57 N2         -4.0325    3.9897    3.2451 N.4       1 <0>        -0.3911
     58 H27        -3.1604    4.2067    3.7417 H         1 <0>         0.4282
@<TRIPOS>BOND
     1    1    6 ar
     2    1    2 ar
     3    1   34 1
     4    2    3 ar
     5    2   35 1
     6    3    4 ar
     7    3   36 1
     8    4    9 1
     9    4    5 ar
    10    5    6 ar
    11    5    7 1
    12    6   37 1
    13    7   19 1
    14    7    8 2
    15    8    9 1
    16    8   11 1
    17    9   10 1
    18   11   12 1
    19   11   29 1
    20   11   13 1
    21   13   18 1
    22   13   23 1
    23   13   14 1
    24   14   15 1
    25   14   38 1
    26   14   39 1
    27   15   40 1
    28   15   41 1
    29   15   57 1
    30   16   17 1
    31   16   18 1
    32   16   21 1
    33   16   57 1
    34   18   19 1
    35   18   20 1
    36   19   42 1
    37   19   43 1
    38   20   44 1
    39   21   22 1
    40   21   45 1
    41   21   46 1
    42   22   27 ar
    43   22   23 ar
    44   23   24 ar
    45   24   25 ar
    46   24   29 1
    47   25   26 ar
    48   25   28 1
    49   26   27 ar
    50   26   47 1
    51   27   48 1
    52   28   49 1
    53   30   31 1
    54   30   50 1
    55   30   51 1
    56   30   57 1
    57   31   33 1
    58   31   32 1
    59   31   52 1
    60   32   33 1
    61   32   53 1
    62   32   54 1
    63   33   55 1
    64   33   56 1
    65   57   58 1
@<TRIPOS>MOLECULE
ZINC03995590
   94   106     0     0     0
SMALL
USER_CHARGES
bis(cyclopropylmethyl)BLAHtetrol
@<TRIPOS>ATOM
      1 C1         -4.2408    4.0532   -3.2394 C.ar      1 <0>        -0.1134
      2 C2         -3.9584    2.9337   -4.0047 C.ar      1 <0>        -0.0957
      3 C3         -3.4900    1.7383   -3.4645 C.ar      1 <0>         0.1094
      4 C4         -3.3426    1.6840   -2.0731 C.ar      1 <0>         0.1114
      5 C5         -3.7142    2.7988   -1.3374 C.ar      1 <0>        -0.1823
      6 C6         -4.0855    4.0158   -1.8650 C.ar      1 <0>        -0.0582
      7 C7         -4.2780    5.1826   -0.9520 C.3       1 <0>        -0.0880
      8 C8         -4.0391    4.8548    0.5130 C.3       1 <0>         0.0115
      9 H1         -3.6893    5.7683    0.9939 H         1 <0>         0.1392
     10 C9         -2.9780    3.7683    0.7399 C.3       1 <0>         0.1527
     11 C10        -3.5100    2.4821    0.1226 C.3       1 <0>        -0.0219
     12 C11        -4.8355    2.0867    0.7671 C.3       1 <0>        -0.1286
     13 C12        -5.8408    3.2279    0.5811 C.3       1 <0>        -0.0020
     14 C13        -6.2781    5.5492    1.1099 C.3       1 <0>         0.0260
     15 C14        -7.4603    5.2115    2.0206 C.3       1 <0>        -0.2142
     16 C15        -8.8285    5.0242    1.3619 C.3       1 <0>        -0.1670
     17 C16        -8.5446    6.2768    2.1948 C.3       1 <0>        -0.1470
     18 C17        -2.5614    1.2894    0.0418 C.3       1 <0>         0.1736
     19 H2         -2.7499    0.5782    0.8460 H         1 <0>         0.1394
     20 O1         -2.8749    0.7162   -1.2570 O.3       1 <0>        -0.2785
     21 C18        -1.1278    1.7451    0.0163 C.2       1 <0>         0.0152
     22 C19        -0.7352    3.0399    0.0193 C.2       1 <0>        -0.1254
     23 C20         0.6630    3.0595    0.0048 C.2       1 <0>        -0.1242
     24 C21         1.0842    1.7753    0.0012 C.2       1 <0>         0.0123
     25 N1         -0.0111    0.9658    0.0074 N.pl3     1 <0>        -0.5109
     26 H3          0.0021   -0.0041    0.0020 H         1 <0>         0.4259
     27 C22         2.5295    1.3513   -0.0087 C.3       1 <0>         0.1722
     28 H4          2.7638    0.7176   -0.8640 H         1 <0>         0.1455
     29 C23         3.4428    2.5749    0.0709 C.3       1 <0>        -0.0234
     30 C24         4.8494    2.2442   -0.4175 C.3       1 <0>        -0.1282
     31 C25         5.7854    3.4013   -0.0504 C.3       1 <0>        -0.0016
     32 C26         3.9344    4.9735   -0.1492 C.3       1 <0>         0.0088
     33 H5          3.6143    5.8881   -0.6483 H         1 <0>         0.1384
     34 C27         2.9439    3.8686   -0.5553 C.3       1 <0>         0.1542
     35 C28         1.5707    4.2581    0.0037 C.3       1 <0>        -0.0683
     36 O2          2.8992    3.7431   -1.9781 O.3       1 <0>        -0.5369
     37 C29         3.9583    5.2454    1.3465 C.3       1 <0>        -0.0866
     38 C30         3.6963    4.0323    2.1788 C.ar      1 <0>        -0.0592
     39 C31         3.4539    2.8277    1.5575 C.ar      1 <0>        -0.1765
     40 C32         3.0679    1.6548    2.1891 C.ar      1 <0>         0.1085
     41 C33         3.0234    1.6495    3.5874 C.ar      1 <0>         0.1115
     42 C34         3.3380    2.8428    4.2339 C.ar      1 <0>        -0.0980
     43 C35         3.6585    4.0111    3.5616 C.ar      1 <0>        -0.1114
     44 O3          2.6878    0.5306    4.2839 O.3       1 <0>        -0.4777
     45 O4          2.7993    0.6991    1.2704 O.3       1 <0>        -0.2801
     46 C36         6.2059    5.7573   -0.4118 C.3       1 <0>         0.0258
     47 C37         7.5054    5.4992   -1.1771 C.3       1 <0>        -0.2144
     48 C38         8.7843    5.3184   -0.3570 C.3       1 <0>        -0.1670
     49 C39         8.5655    6.6022   -1.1614 C.3       1 <0>        -0.1470
     50 C40        -1.6879    4.2064    0.0330 C.3       1 <0>        -0.0685
     51 O5         -2.7343    3.5798    2.1353 O.3       1 <0>        -0.5353
     52 O6         -3.1890    0.6720   -4.2531 O.3       1 <0>        -0.4775
     53 H6         -4.5841    4.9588   -3.7174 H         1 <0>         0.1408
     54 H7         -4.1084    2.9906   -5.0728 H         1 <0>         0.1447
     55 H8         -5.2981    5.5495   -1.0653 H         1 <0>         0.1062
     56 H9         -3.5889    5.9731   -1.2493 H         1 <0>         0.1253
     57 H10        -5.2172    1.1832    0.2915 H         1 <0>         0.1198
     58 H11        -4.6833    1.9025    1.8306 H         1 <0>         0.1075
     59 H12        -6.0270    3.3786   -0.4823 H         1 <0>         0.1343
     60 H13        -6.7754    2.9741    1.0813 H         1 <0>         0.1389
     61 H14        -5.8132    6.4758    1.4465 H         1 <0>         0.1326
     62 H15        -6.6315    5.6711    0.0860 H         1 <0>         0.1327
     63 H16        -7.2265    4.5858    2.8819 H         1 <0>         0.1250
     64 H17        -8.8864    5.1415    0.2798 H         1 <0>         0.1064
     65 H18        -9.4950    4.2755    1.7902 H         1 <0>         0.1115
     66 H19        -9.0245    6.3516    3.1706 H         1 <0>         0.1136
     67 H20        -8.4156    7.2183    1.6609 H         1 <0>         0.1081
     68 H21         5.1962    1.3281    0.0607 H         1 <0>         0.1205
     69 H22         4.8383    2.1099   -1.4992 H         1 <0>         0.1079
     70 H23         5.8294    3.5037    1.0339 H         1 <0>         0.1339
     71 H24         6.7840    3.1984   -0.4375 H         1 <0>         0.1386
     72 H25         1.6857    4.6264    1.0231 H         1 <0>         0.0973
     73 H26         1.1352    5.0407   -0.6175 H         1 <0>         0.0881
     74 H27         2.5883    4.5376   -2.4334 H         1 <0>         0.3928
     75 H28         4.9364    5.6462    1.6125 H         1 <0>         0.1059
     76 H29         3.2008    5.9945    1.5770 H         1 <0>         0.1246
     77 H30         3.3314    2.8581    5.3137 H         1 <0>         0.1437
     78 H31         3.8802    4.9090    4.1195 H         1 <0>         0.1402
     79 H32         1.7406    0.4455    4.4588 H         1 <0>         0.3963
     80 H33         5.7558    6.6859   -0.7628 H         1 <0>         0.1325
     81 H34         6.4217    5.8381    0.6536 H         1 <0>         0.1325
     82 H35         7.4049    4.9107   -2.0891 H         1 <0>         0.1252
     83 H36         8.6999    5.3833    0.7278 H         1 <0>         0.1062
     84 H37         9.5253    4.6112   -0.7296 H         1 <0>         0.1114
     85 H38         9.1628    6.7392   -2.0628 H         1 <0>         0.1136
     86 H39         8.3371    7.5119   -0.6061 H         1 <0>         0.1080
     87 H40        -1.2390    5.0408    0.5719 H         1 <0>         0.0875
     88 H41        -1.9132    4.5085   -0.9897 H         1 <0>         0.0978
     89 H42        -2.4218    4.3736    2.5907 H         1 <0>         0.3912
     90 H43        -2.2713    0.6546   -4.5575 H         1 <0>         0.3970
     91 N2         -5.2894    4.4569    1.1948 N.4       1 <0>        -0.3861
     92 H44        -5.0834    4.2703    2.1832 H         1 <0>         0.4321
     93 N3          5.2765    4.6435   -0.6752 N.4       1 <0>        -0.3850
     94 H45         5.2085    4.4998   -1.6896 H         1 <0>         0.4327
@<TRIPOS>BOND
     1    1    6 ar
     2    1    2 ar
     3    1   53 1
     4    2    3 ar
     5    2   54 1
     6    3    4 ar
     7    3   52 1
     8    4   20 1
     9    4    5 ar
    10    5   11 1
    11    5    6 ar
    12    6    7 1
    13    7    8 1
    14    7   55 1
    15    7   56 1
    16    8    9 1
    17    8   10 1
    18    8   91 1
    19   10   50 1
    20   10   11 1
    21   10   51 1
    22   11   12 1
    23   11   18 1
    24   12   13 1
    25   12   57 1
    26   12   58 1
    27   13   59 1
    28   13   60 1
    29   13   91 1
    30   14   15 1
    31   14   61 1
    32   14   62 1
    33   14   91 1
    34   15   17 1
    35   15   16 1
    36   15   63 1
    37   16   17 1
    38   16   64 1
    39   16   65 1
    40   17   66 1
    41   17   67 1
    42   18   19 1
    43   18   20 1
    44   18   21 1
    45   21   25 1
    46   21   22 2
    47   22   23 1
    48   22   50 1
    49   23   35 1
    50   23   24 2
    51   24   25 1
    52   24   27 1
    53   25   26 1
    54   27   28 1
    55   27   45 1
    56   27   29 1
    57   29   34 1
    58   29   39 1
    59   29   30 1
    60   30   31 1
    61   30   68 1
    62   30   69 1
    63   31   70 1
    64   31   71 1
    65   31   93 1
    66   32   33 1
    67   32   34 1
    68   32   37 1
    69   32   93 1
    70   34   35 1
    71   34   36 1
    72   35   72 1
    73   35   73 1
    74   36   74 1
    75   37   38 1
    76   37   75 1
    77   37   76 1
    78   38   43 ar
    79   38   39 ar
    80   39   40 ar
    81   40   41 ar
    82   40   45 1
    83   41   42 ar
    84   41   44 1
    85   42   43 ar
    86   42   77 1
    87   43   78 1
    88   44   79 1
    89   46   47 1
    90   46   80 1
    91   46   81 1
    92   46   93 1
    93   47   49 1
    94   47   48 1
    95   47   82 1
    96   48   49 1
    97   48   83 1
    98   48   84 1
    99   49   85 1
   100   49   86 1
   101   50   87 1
   102   50   88 1
   103   51   89 1
   104   52   90 1
   105   91   92 1
   106   93   94 1
@<TRIPOS>MOLECULE
ZINC00591998
   51    53     0     0     0
SMALL
USER_CHARGES

@<TRIPOS>ATOM
      1 C1          0.2450    1.1360   -0.1367 C.3       1 <0>         0.0575
      2 N1          0.0619   -0.3097    0.0145 N.am      1 <0>        -0.6341
      3 C2          0.0119   -0.9057    1.3518 C.3       1 <0>         0.1239
      4 H1         -0.1275   -1.9832    1.2643 H         1 <0>         0.1245
      5 C3          1.3224   -0.6190    2.0874 C.3       1 <0>        -0.1239
      6 C4          1.2702   -1.2415    3.4840 C.3       1 <0>        -0.1279
      7 C5          0.1029   -0.6383    4.2679 C.3       1 <0>        -0.1185
      8 C6         -1.2077   -0.9250    3.5323 C.3       1 <0>        -0.1397
      9 C7         -1.1554   -0.3025    2.1357 C.3       1 <0>         0.0168
     10 H2         -1.0161    0.7750    2.2232 H         1 <0>         0.1391
     11 N2         -2.4138   -0.5778    1.4295 N.4       1 <0>        -0.3895
     12 C8         -2.6955   -2.0361    1.4346 C.3       1 <0>        -0.0217
     13 C9         -4.2249   -2.1026    1.1954 C.3       1 <0>        -0.1421
     14 C10        -4.7533   -0.8916    1.9981 C.3       1 <0>        -0.1428
     15 C11        -3.5464    0.0542    2.1403 C.3       1 <0>        -0.0154
     16 C12        -0.0604   -1.0912   -1.0767 C.2       1 <0>         0.5134
     17 O1         -0.2119   -2.2880   -0.9515 O.2       1 <0>        -0.5110
     18 C13        -0.0089   -0.4781   -2.4523 C.3       1 <0>        -0.0996
     19 C14        -0.1687   -1.5588   -3.4903 C.ar      1 <0>        -0.0665
     20 C15         0.9452   -2.2111   -3.9858 C.ar      1 <0>        -0.0852
     21 C16         0.8001   -3.2021   -4.9380 C.ar      1 <0>        -0.0925
     22 C17        -0.4603   -3.5423   -5.3958 C.ar      1 <0>        -0.0257
     23 C18        -1.5757   -2.8896   -4.8994 C.ar      1 <0>        -0.0302
     24 C19        -1.4290   -1.9013   -3.9424 C.ar      1 <0>        -0.0874
     25 Cl1        -3.1580   -3.3149   -5.4732 Cl        1 <0>        -0.0404
     26 Cl2        -0.6431   -4.7867   -6.5924 Cl        1 <0>        -0.0362
     27 H3          1.3094    1.3634   -0.1945 H         1 <0>         0.0770
     28 H4         -0.2482    1.4712   -1.0491 H         1 <0>         0.0873
     29 H5         -0.1901    1.6490    0.7210 H         1 <0>         0.0744
     30 H6          2.1540   -1.0488    1.5289 H         1 <0>         0.0881
     31 H7          1.4618    0.4585    2.1748 H         1 <0>         0.0785
     32 H8          1.1308   -2.3191    3.3966 H         1 <0>         0.0735
     33 H9          2.2038   -1.0373    4.0080 H         1 <0>         0.0857
     34 H10         0.0656   -1.0818    5.2629 H         1 <0>         0.0893
     35 H11         0.2422    0.4392    4.3554 H         1 <0>         0.0764
     36 H12        -1.3471   -2.0025    3.4449 H         1 <0>         0.0926
     37 H13        -2.0393   -0.4953    4.0908 H         1 <0>         0.0937
     38 H14        -2.1580   -2.5346    0.6280 H         1 <0>         0.1391
     39 H15        -2.4375   -2.4744    2.3987 H         1 <0>         0.1399
     40 H16        -4.4547   -1.9927    0.1356 H         1 <0>         0.0964
     41 H17        -4.6363   -3.0333    1.5859 H         1 <0>         0.1176
     42 H18        -5.5582   -0.3985    1.4531 H         1 <0>         0.1053
     43 H19        -5.1010   -1.2115    2.9804 H         1 <0>         0.1047
     44 H20        -3.2980    0.1835    3.1937 H         1 <0>         0.1342
     45 H21        -3.7759    1.0195    1.6890 H         1 <0>         0.1304
     46 H22        -0.8150    0.2481   -2.5568 H         1 <0>         0.1112
     47 H23         0.9500    0.0210   -2.5920 H         1 <0>         0.1176
     48 H24         1.9293   -1.9457   -3.6286 H         1 <0>         0.1376
     49 H25         1.6707   -3.7107   -5.3251 H         1 <0>         0.1477
     50 H26        -2.2990   -1.3945   -3.5517 H         1 <0>         0.1364
     51 H27        -2.3633   -0.2355    0.4816 H         1 <0>         0.4205
@<TRIPOS>BOND
     1    1    2 1
     2    1   27 1
     3    1   28 1
     4    1   29 1
     5    2    3 1
     6    2   16 am
     7    3    4 1
     8    3    9 1
     9    3    5 1
    10    5    6 1
    11    5   30 1
    12    5   31 1
    13    6    7 1
    14    6   32 1
    15    6   33 1
    16    7    8 1
    17    7   34 1
    18    7   35 1
    19    8    9 1
    20    8   36 1
    21    8   37 1
    22    9   10 1
    23    9   11 1
    24   11   15 1
    25   11   12 1
    26   11   51 1
    27   12   13 1
    28   12   38 1
    29   12   39 1
    30   13   14 1
    31   13   40 1
    32   13   41 1
    33   14   15 1
    34   14   42 1
    35   14   43 1
    36   15   44 1
    37   15   45 1
    38   16   17 2
    39   16   18 1
    40   18   19 1
    41   18   46 1
    42   18   47 1
    43   19   24 ar
    44   19   20 ar
    45   20   21 ar
    46   20   48 1
    47   21   22 ar
    48   21   49 1
    49   22   23 ar
    50   22   26 1
    51   23   24 ar
    52   23   25 1
    53   24   50 1
@<TRIPOS>MOLECULE
ZINC02522669
   54    56     0     0     0
SMALL
USER_CHARGES

@<TRIPOS>ATOM
      1 C1         -4.1700   -4.6057   -0.1771 C.3       1 <0>        -0.1450
      2 C2         -2.7436   -4.0614   -0.0761 C.3       1 <0>        -0.1421
      3 C3         -2.7798   -2.5548   -0.0739 C.2       1 <0>         0.5109
      4 O1         -3.8315   -1.9732   -0.2372 O.2       1 <0>        -0.4896
      5 N1         -1.6434   -1.8538    0.1095 N.am      1 <0>        -0.5527
      6 C4         -1.6940   -0.4619    0.2437 C.ar      1 <0>         0.1484
      7 C5         -0.5193    0.2786    0.2615 C.ar      1 <0>        -0.1862
      8 C6         -0.5727    1.6523    0.3941 C.ar      1 <0>        -0.0955
      9 C7         -1.7941    2.2904    0.5092 C.ar      1 <0>        -0.1364
     10 C8         -2.9656    1.5559    0.4923 C.ar      1 <0>        -0.0851
     11 C9         -2.9193    0.1825    0.3537 C.ar      1 <0>        -0.1559
     12 C10        -0.3552   -2.5490    0.1684 C.3       1 <0>         0.1259
     13 C11         0.3795   -2.1577    1.4538 C.3       1 <0>        -0.1795
     14 C12         1.7567   -2.8246    1.4708 C.3       1 <0>        -0.0013
     15 N2          2.5335   -2.3811    0.3071 N.4       1 <0>        -0.3871
     16 C13         1.8713   -2.8155   -0.9288 C.3       1 <0>        -0.0079
     17 C14         0.4986   -2.1483   -1.0381 C.3       1 <0>        -0.1782
     18 C15         3.8811   -2.9625    0.3692 C.3       1 <0>        -0.0064
     19 C16         4.7309   -2.4036   -0.7737 C.3       1 <0>        -0.1003
     20 C17         6.1134   -3.0001   -0.7099 C.ar      1 <0>        -0.1090
     21 C18         7.1017   -2.3767    0.0286 C.ar      1 <0>        -0.1100
     22 C19         8.3698   -2.9239    0.0871 C.ar      1 <0>        -0.1136
     23 C20         8.6494   -4.0947   -0.5925 C.ar      1 <0>        -0.1037
     24 C21         7.6608   -4.7186   -1.3303 C.ar      1 <0>        -0.1139
     25 C22         6.3916   -4.1737   -1.3853 C.ar      1 <0>        -0.1102
     26 H1         -4.1438   -5.6953   -0.1787 H         1 <0>         0.0700
     27 H2         -4.7529   -4.2575    0.6756 H         1 <0>         0.0658
     28 H3         -4.6293   -4.2519   -1.1001 H         1 <0>         0.0681
     29 H4         -2.2842   -4.4152    0.8469 H         1 <0>         0.0959
     30 H5         -2.1606   -4.4096   -0.9288 H         1 <0>         0.0976
     31 H6          0.4349   -0.2192    0.1721 H         1 <0>         0.1211
     32 H7          0.3405    2.2288    0.4084 H         1 <0>         0.1268
     33 H8         -1.8331    3.3647    0.6128 H         1 <0>         0.1271
     34 H9         -3.9179    2.0571    0.5827 H         1 <0>         0.1309
     35 H10        -3.8348   -0.3902    0.3354 H         1 <0>         0.1750
     36 H11        -0.5215   -3.6262    0.1557 H         1 <0>         0.1190
     37 H12         0.4990   -1.0749    1.4896 H         1 <0>         0.1124
     38 H13        -0.1963   -2.4897    2.3177 H         1 <0>         0.1214
     39 H14         2.2824   -2.5483    2.3848 H         1 <0>         0.1385
     40 H15         1.6360   -3.9073    1.4353 H         1 <0>         0.1337
     41 H16         2.4817   -2.5325   -1.7863 H         1 <0>         0.1394
     42 H17         1.7482   -3.8984   -0.9131 H         1 <0>         0.1347
     43 H18         0.0078   -2.4735   -1.9554 H         1 <0>         0.1207
     44 H19         0.6206   -1.0652   -1.0541 H         1 <0>         0.1092
     45 H20         4.3428   -2.7082    1.3233 H         1 <0>         0.1345
     46 H21         3.8138   -4.0464    0.2756 H         1 <0>         0.1333
     47 H22         4.2691   -2.6579   -1.7278 H         1 <0>         0.0951
     48 H23         4.7982   -1.3197   -0.6800 H         1 <0>         0.0953
     49 H24         6.8832   -1.4620    0.5596 H         1 <0>         0.1242
     50 H25         9.1422   -2.4364    0.6635 H         1 <0>         0.1296
     51 H26         9.6404   -4.5218   -0.5474 H         1 <0>         0.1299
     52 H27         7.8794   -5.6331   -1.8616 H         1 <0>         0.1295
     53 H28         5.6182   -4.6631   -1.9587 H         1 <0>         0.1235
     54 H29         2.6030   -1.3745    0.3142 H         1 <0>         0.4225
@<TRIPOS>BOND
     1    1    2 1
     2    1   26 1
     3    1   27 1
     4    1   28 1
     5    2    3 1
     6    2   29 1
     7    2   30 1
     8    3    4 2
     9    3    5 am
    10    5    6 1
    11    5   12 1
    12    6   11 ar
    13    6    7 ar
    14    7    8 ar
    15    7   31 1
    16    8    9 ar
    17    8   32 1
    18    9   10 ar
    19    9   33 1
    20   10   11 ar
    21   10   34 1
    22   11   35 1
    23   12   17 1
    24   12   13 1
    25   12   36 1
    26   13   14 1
    27   13   37 1
    28   13   38 1
    29   14   15 1
    30   14   39 1
    31   14   40 1
    32   15   16 1
    33   15   18 1
    34   15   54 1
    35   16   17 1
    36   16   41 1
    37   16   42 1
    38   17   43 1
    39   17   44 1
    40   18   19 1
    41   18   45 1
    42   18   46 1
    43   19   20 1
    44   19   47 1
    45   19   48 1
    46   20   25 ar
    47   20   21 ar
    48   21   22 ar
    49   21   49 1
    50   22   23 ar
    51   22   50 1
    52   23   24 ar
    53   23   51 1
    54   24   25 ar
    55   24   52 1
    56   25   53 1
@<TRIPOS>MOLECULE
ZINC02015833
   49    51     0     0     0
SMALL
USER_CHARGES
dimethyl-(3-methylbut-2-enyl)BLAHol
@<TRIPOS>ATOM
      1 C1          0.7871    0.1681   -2.3664 C.3       1 <0>        -0.1543
      2 C2          1.0290   -0.5044   -1.0136 C.3       1 <0>        -0.0895
      3 H1          0.9448   -1.5859   -1.1195 H         1 <0>         0.1004
      4 C3          0.0021   -0.0041    0.0020 C.3       1 <0>         0.0336
      5 H2         -0.9756   -0.3489   -0.3348 H         1 <0>         0.1315
      6 C4         -0.0185    1.5145    0.0104 C.3       1 <0>        -0.0878
      7 C5          1.3688    2.0979    0.0003 C.ar      1 <0>        -0.1107
      8 C6          1.4961    3.4605    0.2480 C.ar      1 <0>        -0.0947
      9 C7          2.7354    4.0629    0.2406 C.ar      1 <0>        -0.1368
     10 C8          3.8693    3.3057   -0.0171 C.ar      1 <0>         0.1241
     11 C9          3.7439    1.9476   -0.2579 C.ar      1 <0>        -0.1402
     12 C10         2.4949    1.3454   -0.2437 C.ar      1 <0>        -0.0591
     13 C11         2.4261   -0.1424   -0.4986 C.3       1 <0>        -0.0216
     14 C12         2.6280   -0.8493    0.8536 C.3       1 <0>        -0.1333
     15 C13         1.5895   -0.2893    1.8323 C.3       1 <0>        -0.0057
     16 C14        -0.7814   -0.1176    2.2799 C.3       1 <0>         0.0302
     17 C15        -0.6498   -0.9004    3.5609 C.2       1 <0>        -0.2601
     18 C16        -0.5056   -0.2716    4.7010 C.2       1 <0>        -0.0349
     19 C17        -0.4712    1.2347    4.7315 C.3       1 <0>        -0.1490
     20 C18        -0.3740   -1.0544    5.9819 C.3       1 <0>        -0.1387
     21 C19         3.5063   -0.5678   -1.4950 C.3       1 <0>        -0.1465
     22 O1          5.0948    3.8930   -0.0336 O.3       1 <0>        -0.4968
     23 H3          0.8836    1.2483   -2.2576 H         1 <0>         0.0720
     24 H4          1.5214   -0.1915   -3.0873 H         1 <0>         0.0794
     25 H5         -0.2159   -0.0736   -2.7181 H         1 <0>         0.0685
     26 H6         -0.5573    1.8664   -0.8694 H         1 <0>         0.1214
     27 H7         -0.5404    1.8569    0.9040 H         1 <0>         0.0930
     28 H8          0.6150    4.0523    0.4477 H         1 <0>         0.1314
     29 H9          2.8240    5.1215    0.4351 H         1 <0>         0.1363
     30 H10         4.6239    1.3543   -0.4581 H         1 <0>         0.1374
     31 H11         3.6325   -0.6513    1.2276 H         1 <0>         0.1128
     32 H12         2.4822   -1.9229    0.7346 H         1 <0>         0.0938
     33 H13         1.7273    0.7874    1.9314 H         1 <0>         0.1312
     34 H14         1.7154   -0.7629    2.8059 H         1 <0>         0.1266
     35 H15        -0.6455    0.9439    2.4872 H         1 <0>         0.1326
     36 H16        -1.7715   -0.2808    1.8543 H         1 <0>         0.1321
     37 H17        -0.6745   -1.9799    3.5390 H         1 <0>         0.1342
     38 H18        -1.4054    1.6277    4.3304 H         1 <0>         0.0808
     39 H19        -0.3457    1.5745    5.7596 H         1 <0>         0.0815
     40 H20         0.3625    1.5915    4.1267 H         1 <0>         0.0749
     41 H21         0.6784   -1.2641    6.1732 H         1 <0>         0.0847
     42 H22        -0.7844   -0.4724    6.8072 H         1 <0>         0.0790
     43 H23        -0.9210   -1.9929    5.8920 H         1 <0>         0.0755
     44 H24         3.4546   -1.6456   -1.6488 H         1 <0>         0.0698
     45 H25         3.3461   -0.0572   -2.4446 H         1 <0>         0.0731
     46 H26         4.4879   -0.3036   -1.1015 H         1 <0>         0.0712
     47 H27         5.3605    4.2244   -0.9024 H         1 <0>         0.4006
     48 N1          0.2298   -0.6075    1.3328 N.4       1 <0>        -0.3809
     49 H28         0.1410   -1.6271    1.2509 H         1 <0>         0.4267
@<TRIPOS>BOND
     1    1    2 1
     2    1   23 1
     3    1   24 1
     4    1   25 1
     5    2    3 1
     6    2   13 1
     7    2    4 1
     8    4    5 1
     9    4    6 1
    10    4   48 1
    11    6    7 1
    12    6   26 1
    13    6   27 1
    14    7   12 ar
    15    7    8 ar
    16    8    9 ar
    17    8   28 1
    18    9   10 ar
    19    9   29 1
    20   10   11 ar
    21   10   22 1
    22   11   12 ar
    23   11   30 1
    24   12   13 1
    25   13   14 1
    26   13   21 1
    27   14   15 1
    28   14   31 1
    29   14   32 1
    30   15   33 1
    31   15   34 1
    32   15   48 1
    33   16   17 1
    34   16   35 1
    35   16   36 1
    36   16   48 1
    37   17   18 2
    38   17   37 1
    39   18   19 1
    40   18   20 1
    41   19   38 1
    42   19   39 1
    43   19   40 1
    44   20   41 1
    45   20   42 1
    46   20   43 1
    47   21   44 1
    48   21   45 1
    49   21   46 1
    50   22   47 1
    51   48   49 1
@<TRIPOS>MOLECULE
ZINC01842633
   41    42     0     0     0
SMALL
USER_CHARGES

@<TRIPOS>ATOM
      1 C1          0.0943    1.4874    0.0010 C.3       1 <0>        -0.1118
      2 C2          0.2588   -0.0106    0.0133 C.ar      1 <0>        -0.1080
      3 C3          0.4584   -0.6940   -1.1708 C.ar      1 <0>        -0.0766
      4 C4          0.6089   -2.0681   -1.1602 C.ar      1 <0>        -0.1439
      5 C5          0.5606   -2.7622    0.0349 C.ar      1 <0>        -0.0842
      6 C6          0.3617   -2.0836    1.2214 C.ar      1 <0>        -0.2263
      7 C7          0.2157   -0.7038    1.2140 C.ar      1 <0>         0.1132
      8 O1          0.0255   -0.0332    2.3806 O.3       1 <0>        -0.2959
      9 C8         -0.0636   -0.8168    3.5723 C.3       1 <0>         0.1358
     10 H1          0.4733   -1.7549    3.4312 H         1 <0>         0.0962
     11 C9         -1.5330   -1.1114    3.8803 C.3       1 <0>        -0.1666
     12 C10        -2.1199   -1.9897    2.7735 C.3       1 <0>        -0.0209
     13 N1         -3.5308   -2.2726    3.0692 N.4       1 <0>        -0.5077
     14 C11        -4.0943   -3.1158    2.0066 C.3       1 <0>        -0.0479
     15 C12         0.5477   -0.0561    4.7206 C.ar      1 <0>        -0.1113
     16 C13         0.3309    1.3037    4.8422 C.ar      1 <0>        -0.0896
     17 C14         0.8915    2.0015    5.8956 C.ar      1 <0>        -0.1188
     18 C15         1.6687    1.3395    6.8276 C.ar      1 <0>        -0.1021
     19 C16         1.8848   -0.0205    6.7065 C.ar      1 <0>        -0.1166
     20 C17         1.3206   -0.7191    5.6555 C.ar      1 <0>        -0.1047
     21 H2          1.0711    1.9610    0.0995 H         1 <0>         0.0741
     22 H3         -0.3654    1.7947   -0.9383 H         1 <0>         0.0693
     23 H4         -0.5417    1.7899    0.8329 H         1 <0>         0.0691
     24 H5          0.4965   -0.1542   -2.1055 H         1 <0>         0.1347
     25 H6          0.7641   -2.6006   -2.0870 H         1 <0>         0.1297
     26 H7          0.6780   -3.8358    0.0405 H         1 <0>         0.1279
     27 H8          0.3240   -2.6261    2.1545 H         1 <0>         0.1274
     28 H9         -1.6067   -1.6323    4.8350 H         1 <0>         0.1068
     29 H10        -2.0879   -0.1748    3.9336 H         1 <0>         0.1028
     30 H11        -2.0462   -1.4689    1.8188 H         1 <0>         0.1357
     31 H12        -1.5650   -2.9264    2.7202 H         1 <0>         0.1344
     32 H13        -3.5991   -2.7547    3.9530 H         1 <0>         0.4300
     33 H14        -5.1412   -3.3257    2.2260 H         1 <0>         0.1285
     34 H15        -4.0206   -2.5950    1.0519 H         1 <0>         0.1237
     35 H16        -3.5394   -4.0525    1.9533 H         1 <0>         0.1240
     36 H17        -0.2763    1.8210    4.1141 H         1 <0>         0.1266
     37 H18         0.7227    3.0641    5.9902 H         1 <0>         0.1289
     38 H19         2.1073    1.8848    7.6502 H         1 <0>         0.1293
     39 H20         2.4922   -0.5377    7.4344 H         1 <0>         0.1300
     40 H21         1.4863   -1.7823    5.5629 H         1 <0>         0.1236
     41 H22        -4.0445   -1.4055    3.1186 H         1 <0>         0.4310
@<TRIPOS>BOND
     1    1    2 1
     2    1   21 1
     3    1   22 1
     4    1   23 1
     5    2    7 ar
     6    2    3 ar
     7    3    4 ar
     8    3   24 1
     9    4    5 ar
    10    4   25 1
    11    5    6 ar
    12    5   26 1
    13    6    7 ar
    14    6   27 1
    15    7    8 1
    16    8    9 1
    17    9   10 1
    18    9   11 1
    19    9   15 1
    20   11   12 1
    21   11   28 1
    22   11   29 1
    23   12   13 1
    24   12   30 1
    25   12   31 1
    26   13   14 1
    27   13   32 1
    28   13   41 1
    29   14   33 1
    30   14   34 1
    31   14   35 1
    32   15   20 ar
    33   15   16 ar
    34   16   17 ar
    35   16   36 1
    36   17   18 ar
    37   17   37 1
    38   18   19 ar
    39   18   38 1
    40   19   20 ar
    41   19   39 1
    42   20   40 1
@<TRIPOS>MOLECULE
ZINC03812983
   41    45     0     0     0
SMALL
USER_CHARGES
methylBLAHdiol
@<TRIPOS>ATOM
      1 C1          2.5532   -4.0281   -1.2929 C.3       1 <0>        -0.0484
      2 C2          3.5947   -1.8745   -0.9415 C.3       1 <0>        -0.0043
      3 C3          3.6019   -0.5992   -0.0995 C.3       1 <0>        -0.1260
      4 C4          2.2189    0.0434   -0.2379 C.3       1 <0>        -0.0574
      5 C5          1.9436    0.2694   -1.7033 C.ar      1 <0>        -0.1864
      6 C6          1.3321   -0.5987   -2.5755 C.ar      1 <0>        -0.0564
      7 C7          1.2190   -0.1564   -3.8812 C.ar      1 <0>        -0.1265
      8 C8          1.6669    1.1083   -4.2290 C.ar      1 <0>        -0.1009
      9 C9          2.2257    2.0020   -3.3175 C.ar      1 <0>         0.1075
     10 C10         2.3451    1.5675   -1.9939 C.ar      1 <0>         0.1517
     11 O1          2.7949    2.1721   -0.8702 O.3       1 <0>        -0.2745
     12 C11         2.1727    1.4792    0.2740 C.3       1 <0>         0.1100
     13 H1          2.6983    1.6223    1.2181 H         1 <0>         0.1502
     14 C12         0.7367    2.0155    0.2661 C.3       1 <0>         0.1097
     15 H2          0.6482    2.7733    1.0446 H         1 <0>         0.0803
     16 C13        -0.3150    0.9908    0.4879 C.2       1 <0>        -0.1525
     17 C14        -0.1527   -0.2942    0.4717 C.2       1 <0>        -0.1355
     18 C15         1.1799   -0.9197    0.2862 C.3       1 <0>        -0.0479
     19 H3          1.5192   -1.2471    1.2689 H         1 <0>         0.1004
     20 C16         1.1821   -2.1468   -0.6151 C.3       1 <0>         0.0590
     21 H4          0.4619   -2.8606   -0.2153 H         1 <0>         0.1363
     22 C17         0.8134   -1.9003   -2.0558 C.3       1 <0>        -0.0882
     23 O2          0.4964    2.6425   -0.9953 O.3       1 <0>        -0.5359
     24 O3          2.6371    3.2410   -3.6984 O.3       1 <0>        -0.4796
     25 H5          2.4612   -3.8104   -2.3570 H         1 <0>         0.1267
     26 H6          3.4994   -4.5361   -1.1065 H         1 <0>         0.1256
     27 H7          1.7289   -4.6694   -0.9807 H         1 <0>         0.1244
     28 H8          4.5493   -2.3884   -0.8287 H         1 <0>         0.1314
     29 H9          3.4563   -1.6019   -1.9877 H         1 <0>         0.1340
     30 H10         4.3670    0.0825   -0.4709 H         1 <0>         0.1194
     31 H11         3.7955   -0.8428    0.9451 H         1 <0>         0.0984
     32 H12         0.7809   -0.7981   -4.6314 H         1 <0>         0.1324
     33 H13         1.5779    1.4173   -5.2600 H         1 <0>         0.1363
     34 H14        -1.3148    1.3526    0.6772 H         1 <0>         0.1225
     35 H15        -1.0158   -0.9312    0.5970 H         1 <0>         0.1292
     36 H16        -0.2725   -1.9066   -2.1492 H         1 <0>         0.1227
     37 H17         1.2210   -2.7075   -2.6645 H         1 <0>         0.1017
     38 H18        -0.3623    3.0826   -1.0586 H         1 <0>         0.3865
     39 H19         3.5594    3.2780   -3.9865 H         1 <0>         0.3923
     40 N1          2.5173   -2.7921   -0.4927 N.4       1 <0>        -0.3970
     41 H20         2.6774   -3.0298    0.4933 H         1 <0>         0.4294
@<TRIPOS>BOND
     1    1   25 1
     2    1   26 1
     3    1   27 1
     4    1   40 1
     5    2    3 1
     6    2   28 1
     7    2   29 1
     8    2   40 1
     9    3    4 1
    10    3   30 1
    11    3   31 1
    12    4   12 1
    13    4   18 1
    14    4    5 1
    15    5   10 ar
    16    5    6 ar
    17    6   22 1
    18    6    7 ar
    19    7    8 ar
    20    7   32 1
    21    8    9 ar
    22    8   33 1
    23    9   10 ar
    24    9   24 1
    25   10   11 1
    26   11   12 1
    27   12   13 1
    28   12   14 1
    29   14   15 1
    30   14   16 1
    31   14   23 1
    32   16   17 2
    33   16   34 1
    34   17   18 1
    35   17   35 1
    36   18   19 1
    37   18   20 1
    38   20   21 1
    39   20   22 1
    40   20   40 1
    41   22   36 1
    42   22   37 1
    43   23   38 1
    44   24   39 1
    45   40   41 1
@<TRIPOS>MOLECULE
ZINC00389747
   46    50     0     0     0
SMALL
USER_CHARGES

@<TRIPOS>ATOM
      1 C1         -0.2153    1.4141   -0.0745 C.2       1 <0>        -0.0995
      2 C2         -0.0782    0.1114   -0.0902 C.2       1 <0>        -0.2383
      3 C3         -1.2926   -0.7753    0.0102 C.3       1 <0>         0.0219
      4 N1         -1.3177   -1.7022   -1.1291 N.4       1 <0>        -0.3732
      5 C4         -0.1699   -2.6098   -1.0369 C.3       1 <0>        -0.0115
      6 C5         -0.1579   -3.5650   -2.2369 C.3       1 <0>        -0.1224
      7 C6         -1.4766   -4.3355   -2.2476 C.3       1 <0>        -0.0302
      8 C7         -1.6481   -5.0614   -0.9360 C.ar      1 <0>        -0.1900
      9 C8         -2.2077   -4.5563    0.2155 C.ar      1 <0>        -0.0588
     10 C9         -2.2401   -5.4171    1.2982 C.ar      1 <0>        -0.1120
     11 C10        -1.7820   -6.7182    1.1690 C.ar      1 <0>        -0.0958
     12 C11        -1.2916   -7.2400   -0.0258 C.ar      1 <0>         0.1139
     13 C12        -1.2444   -6.3749   -1.1253 C.ar      1 <0>         0.0999
     14 O1         -0.8978   -6.5770   -2.4147 O.3       1 <0>        -0.2605
     15 C13        -1.4528   -5.4998   -3.2278 C.3       1 <0>         0.0635
     16 H1         -0.8189   -5.2819   -4.0873 H         1 <0>         0.1602
     17 C14        -2.8321   -5.9204   -3.6420 C.2       1 <0>         0.3396
     18 O2         -2.9993   -7.0571   -4.0139 O.2       1 <0>        -0.4106
     19 C15        -4.0126   -4.9969   -3.6157 C.3       1 <0>        -0.1600
     20 C16        -3.9662   -4.1258   -2.3586 C.3       1 <0>        -0.1396
     21 C17        -2.6424   -3.3641   -2.3407 C.3       1 <0>         0.1455
     22 C18        -2.5801   -2.4492   -1.1149 C.3       1 <0>         0.0114
     23 H2         -3.3918   -1.7267   -1.1991 H         1 <0>         0.1436
     24 C19        -2.7615   -3.1683    0.2110 C.3       1 <0>        -0.0929
     25 O3         -2.5223   -2.5856   -3.5330 O.3       1 <0>        -0.5416
     26 O4         -0.8769   -8.5317   -0.1197 O.3       1 <0>        -0.4784
     27 H3          0.6551    2.0496   -0.1465 H         1 <0>         0.1244
     28 H4         -1.1989    1.8527    0.0058 H         1 <0>         0.1121
     29 H5          0.9051   -0.3271   -0.1750 H         1 <0>         0.1345
     30 H6         -1.2521   -1.3431    0.9398 H         1 <0>         0.1373
     31 H7         -2.1930   -0.1610   -0.0013 H         1 <0>         0.1333
     32 H8          0.7517   -2.0277   -1.0288 H         1 <0>         0.1386
     33 H9         -0.2388   -3.1877   -0.1153 H         1 <0>         0.1323
     34 H10        -0.0581   -2.9942   -3.1601 H         1 <0>         0.1101
     35 H11         0.6746   -4.2623   -2.1434 H         1 <0>         0.1196
     36 H12        -2.6236   -5.0734    2.2475 H         1 <0>         0.1419
     37 H13        -1.8059   -7.3595    2.0377 H         1 <0>         0.1457
     38 H14        -3.9926   -4.3588   -4.4992 H         1 <0>         0.1182
     39 H15        -4.9312   -5.5837   -3.6157 H         1 <0>         0.1110
     40 H16        -4.7952   -3.4182   -2.3732 H         1 <0>         0.0998
     41 H17        -4.0368   -4.7574   -1.4731 H         1 <0>         0.0957
     42 H18        -3.8263   -3.2164    0.4393 H         1 <0>         0.1278
     43 H19        -2.2654   -2.5918    0.9917 H         1 <0>         0.1086
     44 H20        -3.2345   -1.9433   -3.6567 H         1 <0>         0.3954
     45 H21        -1.5743   -9.1511   -0.3750 H         1 <0>         0.4012
     46 H22        -1.2543   -1.1748   -1.9869 H         1 <0>         0.4286
@<TRIPOS>BOND
     1    1    2 2
     2    1   27 1
     3    1   28 1
     4    2    3 1
     5    2   29 1
     6    3    4 1
     7    3   30 1
     8    3   31 1
     9    4   22 1
    10    4    5 1
    11    4   46 1
    12    5    6 1
    13    5   32 1
    14    5   33 1
    15    6    7 1
    16    6   34 1
    17    6   35 1
    18    7   15 1
    19    7   21 1
    20    7    8 1
    21    8   13 ar
    22    8    9 ar
    23    9   24 1
    24    9   10 ar
    25   10   11 ar
    26   10   36 1
    27   11   12 ar
    28   11   37 1
    29   12   13 ar
    30   12   26 1
    31   13   14 1
    32   14   15 1
    33   15   16 1
    34   15   17 1
    35   17   18 2
    36   17   19 1
    37   19   20 1
    38   19   38 1
    39   19   39 1
    40   20   21 1
    41   20   40 1
    42   20   41 1
    43   21   22 1
    44   21   25 1
    45   22   23 1
    46   22   24 1
    47   24   42 1
    48   24   43 1
    49   25   44 1
    50   26   45 1
@<TRIPOS>MOLECULE
ZINC14952116
   76    77     0     0     0
SMALL
USER_CHARGES

@<TRIPOS>ATOM
      1 C1         -0.0187    1.5258    0.0104 C.3       1 <0>        -0.1447
      2 C2          0.0021   -0.0041    0.0020 C.3       1 <0>        -0.0967
      3 C3          0.7421   -0.5109    1.2415 C.3       1 <0>        -0.1473
      4 C4         -1.4333   -0.5336    0.0129 C.3       1 <0>        -0.1054
      5 C5         -1.4157   -2.0577   -0.1212 C.3       1 <0>         0.0745
      6 H1         -0.7891   -2.4841    0.6622 H         1 <0>         0.0870
      7 C6         -2.8192   -2.5900    0.0125 C.2       1 <0>         0.4905
      8 O1         -3.3892   -3.0569   -0.9588 O.co2     1 <0>        -0.6874
      9 O2         -3.3846   -2.5537    1.0921 O.co2     1 <0>        -0.6962
     10 N1         -0.8765   -2.4263   -1.4325 N.am      1 <0>        -0.6830
     11 C7         -0.2982   -3.6308   -1.6090 C.2       1 <0>         0.5110
     12 O3         -0.2242   -4.4096   -0.6822 O.2       1 <0>        -0.5434
     13 C8          0.2565   -4.0101   -2.9579 C.3       1 <0>         0.1410
     14 H2          1.0331   -3.3007   -3.2439 H         1 <0>         0.1113
     15 C9         -0.8664   -3.9833   -3.9969 C.3       1 <0>        -0.0906
     16 C10        -0.2907   -4.2419   -5.3654 C.ar      1 <0>        -0.0564
     17 C11         0.1466   -3.1854   -6.1422 C.ar      1 <0>        -0.1049
     18 C12         0.6746   -3.4227   -7.3975 C.ar      1 <0>        -0.1132
     19 C13         0.7657   -4.7164   -7.8758 C.ar      1 <0>        -0.1244
     20 C14         0.3292   -5.7730   -7.0986 C.ar      1 <0>        -0.1144
     21 C15        -0.1948   -5.5361   -5.8416 C.ar      1 <0>        -0.1104
     22 N2          0.8270   -5.3577   -2.8901 N.am      1 <0>        -0.7019
     23 C16         1.7936   -5.7246   -3.7546 C.2       1 <0>         0.5103
     24 O4          2.1912   -4.9391   -4.5888 O.2       1 <0>        -0.5220
     25 C17         2.3805   -7.1108   -3.6848 C.3       1 <0>         0.1013
     26 N3          3.4040   -7.2606   -4.7222 N.am      1 <0>        -0.7065
     27 C18         4.0686   -8.4262   -4.8498 C.2       1 <0>         0.5125
     28 O5          3.8194   -9.3510   -4.1058 O.2       1 <0>        -0.5389
     29 C19         5.1215   -8.5803   -5.9170 C.3       1 <0>         0.1024
     30 N4          5.6920   -9.9279   -5.8491 N.am      1 <0>        -0.7178
     31 C20         6.6587  -10.2948   -6.7136 C.2       1 <0>         0.5243
     32 O6          7.0562   -9.5093   -7.5478 O.2       1 <0>        -0.5267
     33 C21         7.2456  -11.6811   -6.6438 C.3       1 <0>         0.0854
     34 H3          6.4524  -12.4018   -6.4452 H         1 <0>         0.1063
     35 C22         8.2817  -11.7402   -5.5196 C.3       1 <0>        -0.1125
     36 C23         8.7791  -13.1547   -5.3688 C.ar      1 <0>        -0.0942
     37 C24         8.1319  -14.0263   -4.5124 C.ar      1 <0>        -0.0953
     38 C25         8.5862  -15.3233   -4.3721 C.ar      1 <0>        -0.1400
     39 C26         9.6924  -15.7513   -5.0916 C.ar      1 <0>         0.1037
     40 C27        10.3397  -14.8750   -5.9506 C.ar      1 <0>        -0.1404
     41 C28         9.8784  -13.5805   -6.0913 C.ar      1 <0>        -0.1033
     42 O7         10.1415  -17.0266   -4.9550 O.3       1 <0>        -0.5002
     43 N5          7.8918  -12.0042   -7.9228 N.3       1 <0>        -0.8255
     44 H4          1.0039    1.9031    0.0027 H         1 <0>         0.0490
     45 H5         -0.5459    1.8868   -0.8726 H         1 <0>         0.0520
     46 H6         -0.5289    1.8773    0.9072 H         1 <0>         0.0538
     47 H7          0.5123   -0.3556   -0.8948 H         1 <0>         0.0651
     48 H8          0.7568   -1.6008    1.2356 H         1 <0>         0.0579
     49 H9          1.7647   -0.1336    1.2338 H         1 <0>         0.0467
     50 H10         0.2319   -0.1594    2.1383 H         1 <0>         0.0546
     51 H11        -1.9156   -0.2570    0.9504 H         1 <0>         0.0807
     52 H12        -1.9862   -0.1019   -0.8214 H         1 <0>         0.0611
     53 H13        -0.9356   -1.8035   -2.1738 H         1 <0>         0.3916
     54 H14        -1.5995   -4.7542   -3.7595 H         1 <0>         0.0864
     55 H15        -1.3495   -3.0063   -3.9847 H         1 <0>         0.0914
     56 H16         0.0754   -2.1747   -5.7685 H         1 <0>         0.1162
     57 H17         1.0157   -2.5972   -8.0047 H         1 <0>         0.1146
     58 H18         1.1776   -4.9017   -8.8569 H         1 <0>         0.1130
     59 H19         0.4001   -6.7838   -7.4725 H         1 <0>         0.1117
     60 H20        -0.5324   -6.3619   -5.2329 H         1 <0>         0.1103
     61 H21         0.5090   -5.9859   -2.2229 H         1 <0>         0.4131
     62 H22         2.8314   -7.2656   -2.7045 H         1 <0>         0.1015
     63 H23         1.5926   -7.8473   -3.8427 H         1 <0>         0.1009
     64 H24         3.6034   -6.5210   -5.3172 H         1 <0>         0.4161
     65 H25         4.6706   -8.4255   -6.8972 H         1 <0>         0.1029
     66 H26         5.9094   -7.8438   -5.7591 H         1 <0>         0.1017
     67 H27         5.3741  -10.5561   -5.1819 H         1 <0>         0.4123
     68 H28         9.1183  -11.0848   -5.7617 H         1 <0>         0.0822
     69 H29         7.8235  -11.4147   -4.5857 H         1 <0>         0.0865
     70 H30         7.2708  -13.6926   -3.9525 H         1 <0>         0.1304
     71 H31         8.0808  -16.0035   -3.7025 H         1 <0>         0.1306
     72 H32        11.2012  -15.2058   -6.5118 H         1 <0>         0.1298
     73 H33        10.3793  -12.8992   -6.7631 H         1 <0>         0.1258
     74 H34         9.7431  -17.6525   -5.5751 H         1 <0>         0.3917
     75 H35         8.6314  -11.3498   -8.1298 H         1 <0>         0.3515
     76 H36         8.2370  -12.9523   -7.9242 H         1 <0>         0.3495
@<TRIPOS>BOND
     1    1    2 1
     2    1   44 1
     3    1   45 1
     4    1   46 1
     5    2    3 1
     6    2    4 1
     7    2   47 1
     8    3   48 1
     9    3   49 1
    10    3   50 1
    11    4    5 1
    12    4   51 1
    13    4   52 1
    14    5    6 1
    15    5    7 1
    16    5   10 1
    17    7    8 2
    18    7    9 1
    19   10   11 am
    20   10   53 1
    21   11   12 2
    22   11   13 1
    23   13   14 1
    24   13   15 1
    25   13   22 1
    26   15   16 1
    27   15   54 1
    28   15   55 1
    29   16   21 ar
    30   16   17 ar
    31   17   18 ar
    32   17   56 1
    33   18   19 ar
    34   18   57 1
    35   19   20 ar
    36   19   58 1
    37   20   21 ar
    38   20   59 1
    39   21   60 1
    40   22   23 am
    41   22   61 1
    42   23   24 2
    43   23   25 1
    44   25   26 1
    45   25   62 1
    46   25   63 1
    47   26   27 am
    48   26   64 1
    49   27   28 2
    50   27   29 1
    51   29   30 1
    52   29   65 1
    53   29   66 1
    54   30   31 am
    55   30   67 1
    56   31   32 2
    57   31   33 1
    58   33   34 1
    59   33   35 1
    60   33   43 1
    61   35   36 1
    62   35   68 1
    63   35   69 1
    64   36   41 ar
    65   36   37 ar
    66   37   38 ar
    67   37   70 1
    68   38   39 ar
    69   38   71 1
    70   39   40 ar
    71   39   42 1
    72   40   41 ar
    73   40   72 1
    74   41   73 1
    75   42   74 1
    76   43   75 1
    77   43   76 1
@<TRIPOS>MOLECULE
ZINC00005739
   51    53     0     0     0
SMALL
USER_CHARGES

@<TRIPOS>ATOM
      1 C1         -0.5664    1.5629    0.4635 C.3       1 <0>         0.0487
      2 N1         -0.1670    0.1850    0.1670 N.am      1 <0>        -0.6331
      3 C2          0.1346   -0.7418    1.2608 C.3       1 <0>         0.1666
      4 H1          0.3080   -1.7385    0.8551 H         1 <0>         0.1299
      5 C3         -1.0461   -0.7851    2.2328 C.3       1 <0>        -0.0141
      6 N2         -2.2724   -1.1246    1.4987 N.4       1 <0>        -0.3939
      7 C4         -2.2123   -2.5306    1.0236 C.3       1 <0>        -0.0116
      8 C5         -3.7022   -2.8948    0.8044 C.3       1 <0>        -0.1433
      9 C6         -4.4102   -2.1731    1.9740 C.3       1 <0>        -0.1440
     10 C7         -3.4428   -1.0534    2.4003 C.3       1 <0>        -0.0096
     11 C8          1.3682   -0.2744    1.9894 C.ar      1 <0>        -0.1201
     12 C9          2.4253   -1.1431    2.1866 C.ar      1 <0>        -0.0948
     13 C10         3.5568   -0.7144    2.8549 C.ar      1 <0>        -0.1123
     14 C11         3.6315    0.5831    3.3257 C.ar      1 <0>        -0.0986
     15 C12         2.5748    1.4521    3.1278 C.ar      1 <0>        -0.1151
     16 C13         1.4450    1.0247    2.4556 C.ar      1 <0>        -0.1155
     17 C14        -0.0770   -0.2301   -1.1121 C.2       1 <0>         0.5162
     18 O1          0.2537   -1.3709   -1.3576 O.2       1 <0>        -0.5061
     19 C15        -0.3872    0.7232   -2.2373 C.3       1 <0>        -0.0978
     20 C16        -0.2122    0.0167   -3.5569 C.ar      1 <0>        -0.0835
     21 C17         1.0173    0.0270   -4.1886 C.ar      1 <0>        -0.1024
     22 C18         1.1778   -0.6210   -5.3991 C.ar      1 <0>        -0.1142
     23 C19         0.1089   -1.2797   -5.9776 C.ar      1 <0>        -0.1105
     24 C20        -1.1203   -1.2907   -5.3454 C.ar      1 <0>        -0.1173
     25 C21        -1.2798   -0.6463   -4.1329 C.ar      1 <0>        -0.1074
     26 H2          0.3232    2.1757    0.6094 H         1 <0>         0.0816
     27 H3         -1.1484    1.9595   -0.3684 H         1 <0>         0.0925
     28 H4         -1.1712    1.5788    1.3702 H         1 <0>         0.0704
     29 H5         -0.8598   -1.5392    2.9974 H         1 <0>         0.1461
     30 H6         -1.1637    0.1902    2.7052 H         1 <0>         0.1346
     31 H7         -1.6583   -2.5969    0.0872 H         1 <0>         0.1372
     32 H8         -1.7665   -3.1742    1.7819 H         1 <0>         0.1360
     33 H9         -4.0553   -2.5142   -0.1540 H         1 <0>         0.0968
     34 H10        -3.8495   -3.9728    0.8705 H         1 <0>         0.1183
     35 H11        -5.3565   -1.7483    1.6391 H         1 <0>         0.1056
     36 H12        -4.5762   -2.8645    2.8001 H         1 <0>         0.1054
     37 H13        -3.1268   -1.2085    3.4319 H         1 <0>         0.1326
     38 H14        -3.9301   -0.0836    2.3002 H         1 <0>         0.1314
     39 H15         2.3669   -2.1569    1.8188 H         1 <0>         0.1264
     40 H16         4.3823   -1.3934    3.0096 H         1 <0>         0.1314
     41 H17         4.5152    0.9179    3.8485 H         1 <0>         0.1307
     42 H18         2.6330    2.4658    3.4959 H         1 <0>         0.1298
     43 H19         0.6210    1.7047    2.2977 H         1 <0>         0.1272
     44 H20        -1.4160    1.0714   -2.1452 H         1 <0>         0.1057
     45 H21         0.2905    1.5754   -2.1887 H         1 <0>         0.1104
     46 H22         1.8523    0.5415   -3.7367 H         1 <0>         0.1193
     47 H23         2.1382   -0.6125   -5.8930 H         1 <0>         0.1261
     48 H24         0.2342   -1.7853   -6.9236 H         1 <0>         0.1261
     49 H25        -1.9555   -1.8049   -5.7975 H         1 <0>         0.1247
     50 H26        -2.2392   -0.6580   -3.6371 H         1 <0>         0.1156
     51 H27        -2.3960   -0.4975    0.7180 H         1 <0>         0.4219
@<TRIPOS>BOND
     1    1    2 1
     2    1   26 1
     3    1   27 1
     4    1   28 1
     5    2    3 1
     6    2   17 am
     7    3    4 1
     8    3    5 1
     9    3   11 1
    10    5    6 1
    11    5   29 1
    12    5   30 1
    13    6   10 1
    14    6    7 1
    15    6   51 1
    16    7    8 1
    17    7   31 1
    18    7   32 1
    19    8    9 1
    20    8   33 1
    21    8   34 1
    22    9   10 1
    23    9   35 1
    24    9   36 1
    25   10   37 1
    26   10   38 1
    27   11   16 ar
    28   11   12 ar
    29   12   13 ar
    30   12   39 1
    31   13   14 ar
    32   13   40 1
    33   14   15 ar
    34   14   41 1
    35   15   16 ar
    36   15   42 1
    37   16   43 1
    38   17   18 2
    39   17   19 1
    40   19   20 1
    41   19   44 1
    42   19   45 1
    43   20   25 ar
    44   20   21 ar
    45   21   22 ar
    46   21   46 1
    47   22   23 ar
    48   22   47 1
    49   23   24 ar
    50   23   48 1
    51   24   25 ar
    52   24   49 1
    53   25   50 1
