@<TRIPOS>MOLECULE
ZINC04102215
   67    73     0     0     0
SMALL
USER_CHARGES
cyclopropylmethyl-(1-hydroxy-1-methyl-ethyl)-methoxy-BLAHol
@<TRIPOS>ATOM
      1 C1          4.8147    3.3558   -3.7256 C.3       1 <0>        -0.1825
      2 C2          4.1110    2.0584   -3.3227 C.3       1 <0>         0.1398
      3 C3          5.0338    0.8701   -3.6006 C.3       1 <0>        -0.1376
      4 C4          3.7728    2.1036   -1.8312 C.3       1 <0>        -0.0918
      5 H1          4.6803    2.3107   -1.2641 H         1 <0>         0.0965
      6 C5          2.7528    3.2207   -1.5780 C.3       1 <0>        -0.1171
      7 C6          1.4952    2.6165   -0.9739 C.3       1 <0>        -0.0644
      8 C7          0.9098    1.5865   -1.9500 C.3       1 <0>        -0.1040
      9 C8          1.9235    0.4606   -2.1808 C.3       1 <0>        -0.1586
     10 C9          3.2070    0.7456   -1.4003 C.3       1 <0>         0.1278
     11 C10         2.9012    0.7796    0.0986 C.3       1 <0>         0.0764
     12 H2          3.8088    0.9608    0.6743 H         1 <0>         0.1199
     13 C11         1.8726    1.8879    0.3382 C.3       1 <0>        -0.0466
     14 C12         2.2694    2.8303    1.4276 C.3       1 <0>        -0.1242
     15 C13         1.2487    3.9550    1.6061 C.3       1 <0>        -0.0081
     16 C14         0.4230    3.6437   -0.6278 C.3       1 <0>         0.0608
     17 H3          0.1085    4.1596   -1.5350 H         1 <0>         0.1482
     18 C15        -0.8036    3.0570    0.0762 C.3       1 <0>        -0.0929
     19 C16        -0.6531    1.6424    0.5260 C.ar      1 <0>        -0.0526
     20 C17         0.6191    1.1116    0.6169 C.ar      1 <0>        -0.1786
     21 C18         0.9426   -0.2158    0.7980 C.ar      1 <0>         0.1122
     22 C19        -0.1034   -1.0923    1.1209 C.ar      1 <0>         0.1042
     23 C20        -1.3898   -0.5569    1.1355 C.ar      1 <0>        -0.1008
     24 C21        -1.6762    0.7643    0.8258 C.ar      1 <0>        -0.1169
     25 O1          0.1266   -2.4020    1.4058 O.3       1 <0>        -0.4800
     26 O2          2.2482   -0.4247    0.5392 O.3       1 <0>        -0.2689
     27 C22         0.1607    5.7985    0.4683 C.3       1 <0>         0.0271
     28 C23         0.6803    6.6611    1.6202 C.3       1 <0>        -0.2111
     29 C24        -0.2281    6.8332    2.8393 C.3       1 <0>        -0.1678
     30 C25        -0.0172    7.9997    1.8708 C.3       1 <0>        -0.1481
     31 O3          4.1667   -0.2786   -1.6689 O.3       1 <0>        -0.3556
     32 C26         3.7369   -1.5897   -1.2971 C.3       1 <0>         0.0156
     33 O4          2.9076    1.9143   -4.0798 O.3       1 <0>        -0.5436
     34 H4          5.7326    3.4657   -3.1481 H         1 <0>         0.0698
     35 H5          5.0556    3.3236   -4.7882 H         1 <0>         0.0729
     36 H6          4.1573    4.2024   -3.5276 H         1 <0>         0.0539
     37 H7          4.4576   -0.0543   -3.5616 H         1 <0>         0.0876
     38 H8          5.4790    0.9793   -4.5895 H         1 <0>         0.0553
     39 H9          5.8223    0.8387   -2.8487 H         1 <0>         0.0733
     40 H10         3.1750    3.9503   -0.8870 H         1 <0>         0.0689
     41 H11         2.5059    3.7096   -2.5205 H         1 <0>         0.0909
     42 H12        -0.0052    1.1682   -1.5306 H         1 <0>         0.0845
     43 H13         0.6848    2.0730   -2.8991 H         1 <0>         0.0793
     44 H14         2.1543    0.3957   -3.2441 H         1 <0>         0.1226
     45 H15         1.5004   -0.4868   -1.8467 H         1 <0>         0.0690
     46 H16         3.2396    3.2651    1.1876 H         1 <0>         0.0961
     47 H17         2.3507    2.2722    2.3604 H         1 <0>         0.1157
     48 H18         1.6287    4.6800    2.3260 H         1 <0>         0.1397
     49 H19         0.3090    3.5394    1.9700 H         1 <0>         0.1364
     50 H20        -1.0140    3.6580    0.9609 H         1 <0>         0.0999
     51 H21        -1.6562    3.1289   -0.5990 H         1 <0>         0.1183
     52 H22        -2.2097   -1.2072    1.4025 H         1 <0>         0.1407
     53 H23        -2.7005    1.1067    0.8187 H         1 <0>         0.1367
     54 H24         0.2874   -2.5783    2.3429 H         1 <0>         0.3974
     55 H25         0.1692    6.3801   -0.4536 H         1 <0>         0.1342
     56 H26        -0.8578    5.4771    0.6858 H         1 <0>         0.1305
     57 H27         1.7549    6.6129    1.7961 H         1 <0>         0.1245
     58 H28        -1.1958    6.3319    2.8207 H         1 <0>         0.1056
     59 H29         0.2490    6.8986    3.8172 H         1 <0>         0.1102
     60 H30         0.5985    8.8319    2.2119 H         1 <0>         0.1125
     61 H31        -0.8459    8.2659    1.2147 H         1 <0>         0.1079
     62 H32         4.5207   -2.3095   -1.5330 H         1 <0>         0.0888
     63 H33         3.5307   -1.6147   -0.2271 H         1 <0>         0.0644
     64 H34         2.8314   -1.8450   -1.8477 H         1 <0>         0.0457
     65 H35         2.2743    2.6338   -3.9525 H         1 <0>         0.3630
     66 N1          1.0397    4.6104    0.3036 N.4       1 <0>        -0.3972
     67 H36         1.9455    4.9130   -0.0734 H         1 <0>         0.4243
@<TRIPOS>BOND
     1    1    2 1
     2    1   34 1
     3    1   35 1
     4    1   36 1
     5    2    3 1
     6    2    4 1
     7    2   33 1
     8    3   37 1
     9    3   38 1
    10    3   39 1
    11    4    5 1
    12    4   10 1
    13    4    6 1
    14    6    7 1
    15    6   40 1
    16    6   41 1
    17    7   13 1
    18    7   16 1
    19    7    8 1
    20    8    9 1
    21    8   42 1
    22    8   43 1
    23    9   10 1
    24    9   44 1
    25    9   45 1
    26   10   11 1
    27   10   31 1
    28   11   12 1
    29   11   26 1
    30   11   13 1
    31   13   20 1
    32   13   14 1
    33   14   15 1
    34   14   46 1
    35   14   47 1
    36   15   48 1
    37   15   49 1
    38   15   66 1
    39   16   17 1
    40   16   18 1
    41   16   66 1
    42   18   19 1
    43   18   50 1
    44   18   51 1
    45   19   24 ar
    46   19   20 ar
    47   20   21 ar
    48   21   22 ar
    49   21   26 1
    50   22   23 ar
    51   22   25 1
    52   23   24 ar
    53   23   52 1
    54   24   53 1
    55   25   54 1
    56   27   28 1
    57   27   55 1
    58   27   56 1
    59   27   66 1
    60   28   30 1
    61   28   29 1
    62   28   57 1
    63   29   30 1
    64   29   58 1
    65   29   59 1
    66   30   60 1
    67   30   61 1
    68   31   32 1
    69   32   62 1
    70   32   63 1
    71   32   64 1
    72   33   65 1
    73   66   67 1
@<TRIPOS>MOLECULE
ZINC05966698
   39    41     0     0     0
SMALL
USER_CHARGES
3-(6-methyl-6-azabicyclo[3.3.1]non-1-yl)phenol
@<TRIPOS>ATOM
      1 C1         -3.9625    3.5082   -0.6811 C.3       1 <0>        -0.0429
      2 C2         -3.0781    1.5347    0.4294 C.3       1 <0>        -0.0069
      3 C3         -2.0816    0.9744    1.4330 C.3       1 <0>        -0.1321
      4 C4         -0.6883    1.5742    1.2875 C.3       1 <0>        -0.0096
      5 C5         -0.0128    1.0919    0.0080 C.3       1 <0>        -0.1136
      6 C6         -0.7176    1.5916   -1.2440 C.3       1 <0>        -0.1332
      7 C7         -0.9894    3.0884   -1.2004 C.3       1 <0>        -0.1257
      8 C8         -1.6538    3.5214    0.0997 C.3       1 <0>         0.0351
      9 H1         -1.7184    4.6216    0.1044 H         1 <0>         0.1301
     10 C9         -0.7724    3.1023    1.2821 C.3       1 <0>        -0.1341
     11 C10         0.1487    1.1469    2.4656 C.ar      1 <0>        -0.0735
     12 C11         0.6759    2.0980    3.3198 C.ar      1 <0>        -0.1324
     13 C12         1.4394    1.7089    4.4046 C.ar      1 <0>        -0.0943
     14 C13         1.6869    0.3686    4.6315 C.ar      1 <0>        -0.1398
     15 C14         1.1640   -0.5871    3.7729 C.ar      1 <0>         0.1167
     16 C15         0.3933   -0.1942    2.6880 C.ar      1 <0>        -0.1404
     17 O1          1.4064   -1.9059    3.9936 O.3       1 <0>        -0.4982
     18 H2         -3.6425    3.2791   -1.6976 H         1 <0>         0.1275
     19 H3         -4.9364    3.0550   -0.4960 H         1 <0>         0.1194
     20 H4         -4.0354    4.5888   -0.5581 H         1 <0>         0.1189
     21 H5         -2.9935    1.0232   -0.5270 H         1 <0>         0.1397
     22 H6         -4.0957    1.2978    0.8020 H         1 <0>         0.1167
     23 H7         -2.0176   -0.1141    1.3059 H         1 <0>         0.1103
     24 H8         -2.4493    1.1643    2.4494 H         1 <0>         0.0900
     25 H9          0.0021   -0.0041    0.0020 H         1 <0>         0.0789
     26 H10         1.0272    1.4393   -0.0000 H         1 <0>         0.0784
     27 H11        -0.0555    1.3932   -2.1078 H         1 <0>         0.0820
     28 H12        -1.6296    1.0330   -1.4267 H         1 <0>         0.0691
     29 H13        -0.0351    3.6238   -1.3040 H         1 <0>         0.1091
     30 H14        -1.6132    3.3705   -2.0528 H         1 <0>         0.0859
     31 H15         0.2227    3.5269    1.1637 H         1 <0>         0.1152
     32 H16        -1.2185    3.4514    2.2113 H         1 <0>         0.0920
     33 H17         0.4875    3.1464    3.1415 H         1 <0>         0.1277
     34 H18         1.8461    2.4533    5.0730 H         1 <0>         0.1320
     35 H19         2.2874    0.0654    5.4764 H         1 <0>         0.1337
     36 H20        -0.0153   -0.9364    2.0183 H         1 <0>         0.1283
     37 H21         2.2040   -2.2373    3.5589 H         1 <0>         0.3975
     38 N1         -3.0320    3.0144    0.3503 N.4       1 <0>        -0.3874
     39 H22        -3.3398    3.3843    1.2573 H         1 <0>         0.4297
@<TRIPOS>BOND
     1    1   18 1
     2    1   19 1
     3    1   20 1
     4    1   38 1
     5    2    3 1
     6    2   21 1
     7    2   22 1
     8    2   38 1
     9    3    4 1
    10    3   23 1
    11    3   24 1
    12    4   10 1
    13    4    5 1
    14    4   11 1
    15    5    6 1
    16    5   25 1
    17    5   26 1
    18    6    7 1
    19    6   27 1
    20    6   28 1
    21    7    8 1
    22    7   29 1
    23    7   30 1
    24    8    9 1
    25    8   10 1
    26    8   38 1
    27   10   31 1
    28   10   32 1
    29   11   16 ar
    30   11   12 ar
    31   12   13 ar
    32   12   33 1
    33   13   14 ar
    34   13   34 1
    35   14   15 ar
    36   14   35 1
    37   15   16 ar
    38   15   17 1
    39   16   36 1
    40   17   37 1
    41   38   39 1
@<TRIPOS>MOLECULE
ZINC29206920
   82    84     0     0     0
SMALL
USER_CHARGES

@<TRIPOS>ATOM
      1 C1         -0.7841    0.4745   -0.5040 C.3       1 <0>        -0.1226
      2 C2         -0.2225   -0.9084   -0.1678 C.3       1 <0>        -0.0076
      3 C3         -1.3753   -1.8659    0.1403 C.3       1 <0>         0.1496
      4 H1         -1.6891   -1.7355    1.1760 H         1 <0>         0.1196
      5 C4         -0.9190   -3.2865   -0.0712 C.2       1 <0>         0.4915
      6 O1          0.2447   -3.5316   -0.3093 O.2       1 <0>        -0.4665
      7 N1         -1.8375   -4.2924    0.0103 N.am      1 <0>        -0.7176
      8 C5         -1.3144   -5.6594   -0.2050 C.3       1 <0>         0.0987
      9 C6         -0.2871   -5.9549    0.8574 C.2       1 <0>         0.5172
     10 O2         -0.5433   -5.7922    2.0316 O.2       1 <0>        -0.5347
     11 N2          0.9450   -6.4130    0.4638 N.am      1 <0>        -0.6975
     12 C7          1.8822   -6.6651    1.5890 C.3       1 <0>         0.1263
     13 H2          1.3601   -6.5380    2.5373 H         1 <0>         0.1123
     14 C8          3.0135   -5.6738    1.4955 C.2       1 <0>         0.5124
     15 O3          4.0661   -5.9862    0.9804 O.2       1 <0>        -0.4909
     16 N3          2.8333   -4.4187    1.9997 N.am      1 <0>        -0.7103
     17 C9          3.9880   -3.5028    1.8719 C.3       1 <0>         0.0915
     18 H3          4.7405   -3.7568    2.6185 H         1 <0>         0.0675
     19 C10         3.5044   -2.0690    2.0980 C.3       1 <0>        -0.0197
     20 S1          2.6735   -1.4683    0.6015 S.3       1 <0>        -0.0694
     21 S2          0.8638   -0.7844    1.2797 S.3       1 <0>        -0.2223
     22 C11         2.5238   -2.0406    3.2721 C.3       1 <0>        -0.1519
     23 C12         4.7021   -1.1702    2.4120 C.3       1 <0>        -0.1277
     24 C13         4.5821   -3.6278    0.4926 C.2       1 <0>         0.5124
     25 O4          3.9951   -4.2599   -0.3690 O.co2     1 <0>        -0.6433
     26 O5          5.6497   -3.0967    0.2383 O.co2     1 <0>        -0.7052
     27 C14         2.4340   -8.0888    1.4911 C.3       1 <0>        -0.0780
     28 C15         1.3119   -9.0766    1.6814 C.ar      1 <0>        -0.0675
     29 C16         0.9960   -9.5280    2.9492 C.ar      1 <0>        -0.1140
     30 C17        -0.0332  -10.4341    3.1237 C.ar      1 <0>        -0.1189
     31 C18        -0.7469  -10.8884    2.0305 C.ar      1 <0>        -0.1291
     32 C19        -0.4316  -10.4363    0.7628 C.ar      1 <0>        -0.1213
     33 C20         0.5949   -9.5270    0.5888 C.ar      1 <0>        -0.1100
     34 N4         -2.5015   -1.5771   -0.7511 N.am      1 <0>        -0.7141
     35 C21        -3.7559   -1.8993   -0.3782 C.2       1 <0>         0.5207
     36 O6         -3.9525   -2.4283    0.6952 O.2       1 <0>        -0.5198
     37 C22        -4.9144   -1.6021   -1.2952 C.3       1 <0>         0.0849
     38 H4         -4.6276   -1.8177   -2.3245 H         1 <0>         0.1056
     39 C23        -5.2975   -0.1260   -1.1711 C.3       1 <0>        -0.1126
     40 C24        -6.3727    0.2000   -2.1753 C.ar      1 <0>        -0.0933
     41 C25        -6.0259    0.6295   -3.4429 C.ar      1 <0>        -0.0957
     42 C26        -7.0097    0.9295   -4.3652 C.ar      1 <0>        -0.1401
     43 C27        -8.3467    0.7990   -4.0186 C.ar      1 <0>         0.1035
     44 C28        -8.6921    0.3674   -2.7462 C.ar      1 <0>        -0.1400
     45 C29        -7.7045    0.0637   -1.8293 C.ar      1 <0>        -0.1027
     46 O7         -9.3164    1.0939   -4.9239 O.3       1 <0>        -0.5004
     47 N5         -6.0622   -2.4390   -0.9211 N.3       1 <0>        -0.8245
     48 C30         0.5758   -1.4385   -1.3606 C.3       1 <0>        -0.1756
     49 H5          0.0373    1.1566   -0.7235 H         1 <0>         0.0747
     50 H6         -1.4368    0.3999   -1.3738 H         1 <0>         0.0625
     51 H7         -1.3527    0.8521    0.3457 H         1 <0>         0.0638
     52 H8         -2.7738   -4.1219    0.1977 H         1 <0>         0.4151
     53 H9         -2.1305   -6.3786   -0.1348 H         1 <0>         0.1071
     54 H10        -0.8512   -5.7230   -1.1896 H         1 <0>         0.0876
     55 H11         1.1828   -6.5589   -0.4652 H         1 <0>         0.4153
     56 H12         2.0009   -4.1443    2.4152 H         1 <0>         0.3910
     57 H13         2.9807   -2.5184    4.1387 H         1 <0>         0.0714
     58 H14         2.2774   -1.0070    3.5148 H         1 <0>         0.0652
     59 H15         1.6146   -2.5764    2.9992 H         1 <0>         0.0689
     60 H16         5.4007   -1.1904    1.5755 H         1 <0>         0.0899
     61 H17         4.3575   -0.1488    2.5730 H         1 <0>         0.0556
     62 H18         5.2015   -1.5313    3.3111 H         1 <0>         0.0613
     63 H19         2.8859   -8.2367    0.5103 H         1 <0>         0.0885
     64 H20         3.1868   -8.2406    2.2646 H         1 <0>         0.0855
     65 H21         1.5536   -9.1730    3.8033 H         1 <0>         0.1196
     66 H22        -0.2796  -10.7873    4.1142 H         1 <0>         0.1177
     67 H23        -1.5506  -11.5969    2.1668 H         1 <0>         0.1161
     68 H24        -0.9889  -10.7916   -0.0913 H         1 <0>         0.1177
     69 H25         0.8388   -9.1709   -0.4013 H         1 <0>         0.1196
     70 H26        -2.3443   -1.1539   -1.6097 H         1 <0>         0.4056
     71 H27        -5.6685    0.0697   -0.1650 H         1 <0>         0.0833
     72 H28        -4.4216    0.4940   -1.3623 H         1 <0>         0.0860
     73 H29        -4.9849    0.7309   -3.7122 H         1 <0>         0.1293
     74 H30        -6.7383    1.2656   -5.3550 H         1 <0>         0.1301
     75 H31        -9.7322    0.2651   -2.4740 H         1 <0>         0.1296
     76 H32        -7.9728   -0.2765   -0.8400 H         1 <0>         0.1260
     77 H33        -9.5884    0.3421   -5.4679 H         1 <0>         0.3917
     78 H34        -6.3473   -2.2576    0.0297 H         1 <0>         0.3525
     79 H35        -6.8309   -2.3055   -1.5609 H         1 <0>         0.3494
     80 H36         1.1317   -0.6202   -1.8182 H         1 <0>         0.0570
     81 H37         1.2720   -2.2050   -1.0201 H         1 <0>         0.1395
     82 H38        -0.1076   -1.8679   -2.0932 H         1 <0>         0.0573
@<TRIPOS>BOND
     1    1    2 1
     2    1   49 1
     3    1   50 1
     4    1   51 1
     5    2   21 1
     6    2    3 1
     7    2   48 1
     8    3    4 1
     9    3    5 1
    10    3   34 1
    11    5    6 2
    12    5    7 am
    13    7    8 1
    14    7   52 1
    15    8    9 1
    16    8   53 1
    17    8   54 1
    18    9   10 2
    19    9   11 am
    20   11   12 1
    21   11   55 1
    22   12   13 1
    23   12   14 1
    24   12   27 1
    25   14   15 2
    26   14   16 am
    27   16   17 1
    28   16   56 1
    29   17   18 1
    30   17   19 1
    31   17   24 1
    32   19   20 1
    33   19   22 1
    34   19   23 1
    35   20   21 1
    36   22   57 1
    37   22   58 1
    38   22   59 1
    39   23   60 1
    40   23   61 1
    41   23   62 1
    42   24   25 2
    43   24   26 1
    44   27   28 1
    45   27   63 1
    46   27   64 1
    47   28   33 ar
    48   28   29 ar
    49   29   30 ar
    50   29   65 1
    51   30   31 ar
    52   30   66 1
    53   31   32 ar
    54   31   67 1
    55   32   33 ar
    56   32   68 1
    57   33   69 1
    58   34   35 am
    59   34   70 1
    60   35   36 2
    61   35   37 1
    62   37   38 1
    63   37   39 1
    64   37   47 1
    65   39   40 1
    66   39   71 1
    67   39   72 1
    68   40   45 ar
    69   40   41 ar
    70   41   42 ar
    71   41   73 1
    72   42   43 ar
    73   42   74 1
    74   43   44 ar
    75   43   46 1
    76   44   45 ar
    77   44   75 1
    78   45   76 1
    79   46   77 1
    80   47   78 1
    81   47   79 1
    82   48   80 1
    83   48   81 1
    84   48   82 1
@<TRIPOS>MOLECULE
ZINC29206920
   83    85     0     0     0
SMALL
USER_CHARGES

@<TRIPOS>ATOM
      1 C1         -0.7841    0.4745   -0.5040 C.3       1 <0>        -0.1249
      2 C2         -0.2225   -0.9084   -0.1678 C.3       1 <0>        -0.0153
      3 C3         -1.3753   -1.8659    0.1403 C.3       1 <0>         0.1472
      4 H1         -1.6891   -1.7355    1.1760 H         1 <0>         0.1302
      5 C4         -0.9190   -3.2865   -0.0712 C.2       1 <0>         0.4869
      6 O1          0.2447   -3.5316   -0.3093 O.2       1 <0>        -0.4431
      7 N1         -1.8375   -4.2924    0.0103 N.am      1 <0>        -0.7233
      8 C5         -1.3144   -5.6594   -0.2050 C.3       1 <0>         0.0971
      9 C6         -0.2871   -5.9549    0.8574 C.2       1 <0>         0.5130
     10 O2         -0.5433   -5.7922    2.0316 O.2       1 <0>        -0.5343
     11 N2          0.9450   -6.4130    0.4638 N.am      1 <0>        -0.6942
     12 C7          1.8822   -6.6651    1.5890 C.3       1 <0>         0.1272
     13 H2          1.3601   -6.5380    2.5373 H         1 <0>         0.1133
     14 C8          3.0135   -5.6738    1.4955 C.2       1 <0>         0.5104
     15 O3          4.0661   -5.9862    0.9804 O.2       1 <0>        -0.4844
     16 N3          2.8333   -4.4187    1.9997 N.am      1 <0>        -0.7118
     17 C9          3.9880   -3.5028    1.8719 C.3       1 <0>         0.0899
     18 H3          4.7405   -3.7568    2.6185 H         1 <0>         0.0714
     19 C10         3.5044   -2.0690    2.0980 C.3       1 <0>        -0.0182
     20 S1          2.6735   -1.4683    0.6015 S.3       1 <0>        -0.0615
     21 S2          0.8638   -0.7844    1.2797 S.3       1 <0>        -0.2170
     22 C11         2.5238   -2.0406    3.2721 C.3       1 <0>        -0.1519
     23 C12         4.7021   -1.1702    2.4120 C.3       1 <0>        -0.1304
     24 C13         4.5821   -3.6278    0.4926 C.2       1 <0>         0.5112
     25 O4          3.9951   -4.2599   -0.3690 O.co2     1 <0>        -0.6461
     26 O5          5.6497   -3.0967    0.2383 O.co2     1 <0>        -0.6994
     27 C14         2.4340   -8.0888    1.4911 C.3       1 <0>        -0.0798
     28 C15         1.3119   -9.0766    1.6814 C.ar      1 <0>        -0.0684
     29 C16         0.9960   -9.5280    2.9492 C.ar      1 <0>        -0.1131
     30 C17        -0.0332  -10.4341    3.1237 C.ar      1 <0>        -0.1175
     31 C18        -0.7469  -10.8884    2.0305 C.ar      1 <0>        -0.1285
     32 C19        -0.4316  -10.4363    0.7628 C.ar      1 <0>        -0.1225
     33 C20         0.5949   -9.5270    0.5888 C.ar      1 <0>        -0.1118
     34 N4         -2.5015   -1.5771   -0.7511 N.am      1 <0>        -0.6826
     35 C21        -3.7559   -1.8993   -0.3782 C.2       1 <0>         0.4981
     36 O6         -3.9525   -2.4283    0.6952 O.2       1 <0>        -0.5157
     37 C22        -4.9144   -1.6021   -1.2952 C.3       1 <0>         0.0138
     38 H4         -4.6276   -1.8177   -2.3245 H         1 <0>         0.1684
     39 C23        -5.2975   -0.1260   -1.1711 C.3       1 <0>        -0.0924
     40 C24        -6.3727    0.2000   -2.1753 C.ar      1 <0>        -0.1404
     41 C25        -6.0259    0.6295   -3.4429 C.ar      1 <0>        -0.0825
     42 C26        -7.0097    0.9295   -4.3652 C.ar      1 <0>        -0.1346
     43 C27        -8.3467    0.7990   -4.0186 C.ar      1 <0>         0.1296
     44 C28        -8.6921    0.3674   -2.7462 C.ar      1 <0>        -0.1368
     45 C29        -7.7045    0.0637   -1.8293 C.ar      1 <0>        -0.1192
     46 O7         -9.3164    1.0939   -4.9239 O.3       1 <0>        -0.4951
     47 N5         -6.0622   -2.4390   -0.9211 N.4       1 <0>        -0.6214
     48 C30         0.5758   -1.4385   -1.3606 C.3       1 <0>        -0.1794
     49 H5          0.0373    1.1566   -0.7235 H         1 <0>         0.0819
     50 H6         -1.4368    0.3999   -1.3738 H         1 <0>         0.0574
     51 H7         -1.3527    0.8521    0.3457 H         1 <0>         0.0658
     52 H8         -2.7738   -4.1219    0.1977 H         1 <0>         0.4032
     53 H9         -2.1305   -6.3786   -0.1348 H         1 <0>         0.1082
     54 H10        -0.8512   -5.7230   -1.1896 H         1 <0>         0.0919
     55 H11         1.1828   -6.5589   -0.4652 H         1 <0>         0.4163
     56 H12         2.0009   -4.1443    2.4152 H         1 <0>         0.3893
     57 H13         2.9807   -2.5184    4.1387 H         1 <0>         0.0751
     58 H14         2.2774   -1.0070    3.5148 H         1 <0>         0.0657
     59 H15         1.6146   -2.5764    2.9992 H         1 <0>         0.0668
     60 H16         5.4007   -1.1904    1.5755 H         1 <0>         0.0916
     61 H17         4.3575   -0.1488    2.5730 H         1 <0>         0.0570
     62 H18         5.2015   -1.5313    3.3111 H         1 <0>         0.0651
     63 H19         2.8859   -8.2367    0.5103 H         1 <0>         0.0898
     64 H20         3.1868   -8.2406    2.2646 H         1 <0>         0.0881
     65 H21         1.5536   -9.1730    3.8033 H         1 <0>         0.1207
     66 H22        -0.2796  -10.7873    4.1142 H         1 <0>         0.1192
     67 H23        -1.5506  -11.5969    2.1668 H         1 <0>         0.1169
     68 H24        -0.9889  -10.7916   -0.0913 H         1 <0>         0.1174
     69 H25         0.8388   -9.1709   -0.4013 H         1 <0>         0.1187
     70 H26        -2.3443   -1.1539   -1.6097 H         1 <0>         0.4159
     71 H27        -5.6685    0.0697   -0.1650 H         1 <0>         0.1107
     72 H28        -4.4216    0.4940   -1.3623 H         1 <0>         0.1281
     73 H29        -4.9849    0.7309   -3.7122 H         1 <0>         0.1373
     74 H30        -6.7383    1.2656   -5.3550 H         1 <0>         0.1400
     75 H31        -9.7322    0.2651   -2.4740 H         1 <0>         0.1388
     76 H32        -7.9728   -0.2765   -0.8400 H         1 <0>         0.1293
     77 H33        -9.5884    0.3421   -5.4679 H         1 <0>         0.4007
     78 H34        -6.8378   -2.2401   -1.5350 H         1 <0>         0.4396
     79 H35        -5.8096   -3.4125   -1.0029 H         1 <0>         0.4410
     80 H36         1.1317   -0.6202   -1.8182 H         1 <0>         0.0640
     81 H37         1.2720   -2.2050   -1.0201 H         1 <0>         0.1406
     82 H38        -0.1076   -1.8679   -2.0932 H         1 <0>         0.0552
     83 H39        -6.3276   -2.2394    0.0317 H         1 <0>         0.4425
@<TRIPOS>BOND
     1    1    2 1
     2    1   49 1
     3    1   50 1
     4    1   51 1
     5    2   21 1
     6    2    3 1
     7    2   48 1
     8    3    4 1
     9    3    5 1
    10    3   34 1
    11    5    6 2
    12    5    7 am
    13    7    8 1
    14    7   52 1
    15    8    9 1
    16    8   53 1
    17    8   54 1
    18    9   10 2
    19    9   11 am
    20   11   12 1
    21   11   55 1
    22   12   13 1
    23   12   14 1
    24   12   27 1
    25   14   15 2
    26   14   16 am
    27   16   17 1
    28   16   56 1
    29   17   18 1
    30   17   19 1
    31   17   24 1
    32   19   20 1
    33   19   22 1
    34   19   23 1
    35   20   21 1
    36   22   57 1
    37   22   58 1
    38   22   59 1
    39   23   60 1
    40   23   61 1
    41   23   62 1
    42   24   25 2
    43   24   26 1
    44   27   28 1
    45   27   63 1
    46   27   64 1
    47   28   33 ar
    48   28   29 ar
    49   29   30 ar
    50   29   65 1
    51   30   31 ar
    52   30   66 1
    53   31   32 ar
    54   31   67 1
    55   32   33 ar
    56   32   68 1
    57   33   69 1
    58   34   35 am
    59   34   70 1
    60   35   36 2
    61   35   37 1
    62   37   38 1
    63   37   39 1
    64   37   47 1
    65   39   40 1
    66   39   71 1
    67   39   72 1
    68   40   45 ar
    69   40   41 ar
    70   41   42 ar
    71   41   73 1
    72   42   43 ar
    73   42   74 1
    74   43   44 ar
    75   43   46 1
    76   44   45 ar
    77   44   75 1
    78   45   76 1
    79   46   77 1
    80   47   78 1
    81   47   79 1
    82   47   83 1
    83   48   80 1
    84   48   81 1
    85   48   82 1
@<TRIPOS>MOLECULE
ZINC03870315
   53    56     0     0     0
SMALL
USER_CHARGES
ethyl-[(1-hydroxycyclopropyl)methyl]-dimethyl-BLAHol
@<TRIPOS>ATOM
      1 C1         -2.5286    1.7344    2.0183 C.3       1 <0>        -0.1723
      2 C2         -1.1631    2.4222    2.0758 C.3       1 <0>        -0.1153
      3 C3         -0.2802    1.8987    0.9412 C.3       1 <0>        -0.0106
      4 C4         -0.2512    0.3599    0.9440 C.3       1 <0>        -0.1406
      5 C5          0.7262   -0.0909   -0.1473 C.3       1 <0>        -0.0045
      6 C6          0.1214    1.8433   -1.5047 C.3       1 <0>         0.0364
      7 H1         -0.3118    2.1017   -2.4710 H         1 <0>         0.1313
      8 C7         -0.8222    2.3559   -0.4171 C.3       1 <0>        -0.0554
      9 C8         -0.8799    3.8842   -0.4620 C.3       1 <0>        -0.1495
     10 C9         -2.2228    1.7799   -0.6354 C.3       1 <0>        -0.1819
     11 C10         1.4584    2.5573   -1.4081 C.3       1 <0>        -0.0883
     12 C11         1.9444    2.6561    0.0129 C.ar      1 <0>        -0.1115
     13 C12         1.1444    2.3768    1.0978 C.ar      1 <0>        -0.0571
     14 C13         1.6392    2.5288    2.3838 C.ar      1 <0>        -0.1401
     15 C14         2.9435    2.9492    2.5872 C.ar      1 <0>         0.1246
     16 C15         3.7549    3.2161    1.4942 C.ar      1 <0>        -0.1370
     17 C16         3.2561    3.0692    0.2175 C.ar      1 <0>        -0.0939
     18 O1          3.4250    3.0987    3.8493 O.3       1 <0>        -0.4948
     19 C17         1.1272   -0.0926   -2.5328 C.3       1 <0>         0.0496
     20 C18         1.0004   -1.6133   -2.6434 C.3       1 <0>         0.0205
     21 C19         2.1705   -2.4585   -2.1364 C.3       1 <0>        -0.2001
     22 C20         1.9159   -2.3280   -3.6394 C.3       1 <0>        -0.1787
     23 O2         -0.3176   -2.1363   -2.4660 O.3       1 <0>        -0.5374
     24 H2         -2.4089    0.7205    1.6367 H         1 <0>         0.0621
     25 H3         -2.9593    1.6976    3.0189 H         1 <0>         0.0620
     26 H4         -3.1904    2.2953    1.3583 H         1 <0>         0.0682
     27 H5         -0.6887    2.2085    3.0336 H         1 <0>         0.0772
     28 H6         -1.2938    3.4989    1.9673 H         1 <0>         0.0808
     29 H7         -1.2471   -0.0286    0.7313 H         1 <0>         0.1033
     30 H8          0.0873   -0.0013    1.9151 H         1 <0>         0.1131
     31 H9          0.7778   -1.1796   -0.1617 H         1 <0>         0.1266
     32 H10         1.7155    0.3170    0.0600 H         1 <0>         0.1313
     33 H11        -1.2449    4.2055   -1.4375 H         1 <0>         0.0691
     34 H12        -1.5537    4.2453    0.3150 H         1 <0>         0.0805
     35 H13         0.1177    4.2905   -0.2954 H         1 <0>         0.0721
     36 H14        -2.2816    0.7880   -0.1874 H         1 <0>         0.0722
     37 H15        -2.9609    2.4331   -0.1699 H         1 <0>         0.0959
     38 H16        -2.4237    1.7083   -1.7043 H         1 <0>         0.0647
     39 H17         2.1951    2.0112   -1.9974 H         1 <0>         0.0924
     40 H18         1.3539    3.5621   -1.8174 H         1 <0>         0.1230
     41 H19         1.0043    2.3185    3.2318 H         1 <0>         0.1380
     42 H20         4.7750    3.5379    1.6431 H         1 <0>         0.1363
     43 H21         3.8902    3.2767   -0.6317 H         1 <0>         0.1316
     44 H22         3.8359    2.3014    4.2105 H         1 <0>         0.3984
     45 H23         0.8252    0.3667   -3.4741 H         1 <0>         0.1381
     46 H24         2.1624    0.1708   -2.3157 H         1 <0>         0.1437
     47 H25         3.0308   -1.9313   -1.7240 H         1 <0>         0.1123
     48 H26         1.9352   -3.4138   -1.6672 H         1 <0>         0.1141
     49 H27         1.5130   -3.1974   -4.1590 H         1 <0>         0.1168
     50 H28         2.6083   -1.7147   -4.2161 H         1 <0>         0.1148
     51 H29        -0.3721   -3.0989   -2.5403 H         1 <0>         0.4105
     52 N1          0.2275    0.3689   -1.4661 N.4       1 <0>        -0.3792
     53 H30        -0.7047   -0.0320   -1.6222 H         1 <0>         0.4368
@<TRIPOS>BOND
     1    1    2 1
     2    1   24 1
     3    1   25 1
     4    1   26 1
     5    2    3 1
     6    2   27 1
     7    2   28 1
     8    3    8 1
     9    3   13 1
    10    3    4 1
    11    4    5 1
    12    4   29 1
    13    4   30 1
    14    5   31 1
    15    5   32 1
    16    5   52 1
    17    6    7 1
    18    6    8 1
    19    6   11 1
    20    6   52 1
    21    8    9 1
    22    8   10 1
    23    9   33 1
    24    9   34 1
    25    9   35 1
    26   10   36 1
    27   10   37 1
    28   10   38 1
    29   11   12 1
    30   11   39 1
    31   11   40 1
    32   12   17 ar
    33   12   13 ar
    34   13   14 ar
    35   14   15 ar
    36   14   41 1
    37   15   16 ar
    38   15   18 1
    39   16   17 ar
    40   16   42 1
    41   17   43 1
    42   18   44 1
    43   19   20 1
    44   19   45 1
    45   19   46 1
    46   19   52 1
    47   20   22 1
    48   20   21 1
    49   20   23 1
    50   21   22 1
    51   21   47 1
    52   21   48 1
    53   22   49 1
    54   22   50 1
    55   23   51 1
    56   52   53 1
@<TRIPOS>MOLECULE
ZINC03812983
   41    45     0     0     0
SMALL
USER_CHARGES
methylBLAHdiol
@<TRIPOS>ATOM
      1 C1          2.5532   -4.0281   -1.2929 C.3       1 <0>        -0.0484
      2 C2          3.5947   -1.8745   -0.9415 C.3       1 <0>        -0.0043
      3 C3          3.6019   -0.5992   -0.0995 C.3       1 <0>        -0.1260
      4 C4          2.2189    0.0434   -0.2379 C.3       1 <0>        -0.0574
      5 C5          1.9436    0.2694   -1.7033 C.ar      1 <0>        -0.1864
      6 C6          1.3321   -0.5987   -2.5755 C.ar      1 <0>        -0.0564
      7 C7          1.2190   -0.1564   -3.8812 C.ar      1 <0>        -0.1265
      8 C8          1.6669    1.1083   -4.2290 C.ar      1 <0>        -0.1009
      9 C9          2.2257    2.0020   -3.3175 C.ar      1 <0>         0.1075
     10 C10         2.3451    1.5675   -1.9939 C.ar      1 <0>         0.1517
     11 O1          2.7949    2.1721   -0.8702 O.3       1 <0>        -0.2745
     12 C11         2.1727    1.4792    0.2740 C.3       1 <0>         0.1100
     13 H1          2.6983    1.6223    1.2181 H         1 <0>         0.1502
     14 C12         0.7367    2.0155    0.2661 C.3       1 <0>         0.1097
     15 H2          0.6482    2.7733    1.0446 H         1 <0>         0.0803
     16 C13        -0.3150    0.9908    0.4879 C.2       1 <0>        -0.1525
     17 C14        -0.1527   -0.2942    0.4717 C.2       1 <0>        -0.1355
     18 C15         1.1799   -0.9197    0.2862 C.3       1 <0>        -0.0479
     19 H3          1.5192   -1.2471    1.2689 H         1 <0>         0.1004
     20 C16         1.1821   -2.1468   -0.6151 C.3       1 <0>         0.0590
     21 H4          0.4619   -2.8606   -0.2153 H         1 <0>         0.1363
     22 C17         0.8134   -1.9003   -2.0558 C.3       1 <0>        -0.0882
     23 O2          0.4964    2.6425   -0.9953 O.3       1 <0>        -0.5359
     24 O3          2.6371    3.2410   -3.6984 O.3       1 <0>        -0.4796
     25 H5          2.4612   -3.8104   -2.3570 H         1 <0>         0.1267
     26 H6          3.4994   -4.5361   -1.1065 H         1 <0>         0.1256
     27 H7          1.7289   -4.6694   -0.9807 H         1 <0>         0.1244
     28 H8          4.5493   -2.3884   -0.8287 H         1 <0>         0.1314
     29 H9          3.4563   -1.6019   -1.9877 H         1 <0>         0.1340
     30 H10         4.3670    0.0825   -0.4709 H         1 <0>         0.1194
     31 H11         3.7955   -0.8428    0.9451 H         1 <0>         0.0984
     32 H12         0.7809   -0.7981   -4.6314 H         1 <0>         0.1324
     33 H13         1.5779    1.4173   -5.2600 H         1 <0>         0.1363
     34 H14        -1.3148    1.3526    0.6772 H         1 <0>         0.1225
     35 H15        -1.0158   -0.9312    0.5970 H         1 <0>         0.1292
     36 H16        -0.2725   -1.9066   -2.1492 H         1 <0>         0.1227
     37 H17         1.2210   -2.7075   -2.6645 H         1 <0>         0.1017
     38 H18        -0.3623    3.0826   -1.0586 H         1 <0>         0.3865
     39 H19         3.5594    3.2780   -3.9865 H         1 <0>         0.3923
     40 N1          2.5173   -2.7921   -0.4927 N.4       1 <0>        -0.3970
     41 H20         2.6774   -3.0298    0.4933 H         1 <0>         0.4294
@<TRIPOS>BOND
     1    1   25 1
     2    1   26 1
     3    1   27 1
     4    1   40 1
     5    2    3 1
     6    2   28 1
     7    2   29 1
     8    2   40 1
     9    3    4 1
    10    3   30 1
    11    3   31 1
    12    4   12 1
    13    4   18 1
    14    4    5 1
    15    5   10 ar
    16    5    6 ar
    17    6   22 1
    18    6    7 ar
    19    7    8 ar
    20    7   32 1
    21    8    9 ar
    22    8   33 1
    23    9   10 ar
    24    9   24 1
    25   10   11 1
    26   11   12 1
    27   12   13 1
    28   12   14 1
    29   14   15 1
    30   14   16 1
    31   14   23 1
    32   16   17 2
    33   16   34 1
    34   17   18 1
    35   17   35 1
    36   18   19 1
    37   18   20 1
    38   20   21 1
    39   20   22 1
    40   20   40 1
    41   22   36 1
    42   22   37 1
    43   23   38 1
    44   24   39 1
    45   40   41 1
@<TRIPOS>MOLECULE
ZINC00389747
   46    50     0     0     0
SMALL
USER_CHARGES

@<TRIPOS>ATOM
      1 C1         -0.2153    1.4141   -0.0745 C.2       1 <0>        -0.0995
      2 C2         -0.0782    0.1114   -0.0902 C.2       1 <0>        -0.2383
      3 C3         -1.2926   -0.7753    0.0102 C.3       1 <0>         0.0219
      4 N1         -1.3177   -1.7022   -1.1291 N.4       1 <0>        -0.3732
      5 C4         -0.1699   -2.6098   -1.0369 C.3       1 <0>        -0.0115
      6 C5         -0.1579   -3.5650   -2.2369 C.3       1 <0>        -0.1224
      7 C6         -1.4766   -4.3355   -2.2476 C.3       1 <0>        -0.0302
      8 C7         -1.6481   -5.0614   -0.9360 C.ar      1 <0>        -0.1900
      9 C8         -2.2077   -4.5563    0.2155 C.ar      1 <0>        -0.0588
     10 C9         -2.2401   -5.4171    1.2982 C.ar      1 <0>        -0.1120
     11 C10        -1.7820   -6.7182    1.1690 C.ar      1 <0>        -0.0958
     12 C11        -1.2916   -7.2400   -0.0258 C.ar      1 <0>         0.1139
     13 C12        -1.2444   -6.3749   -1.1253 C.ar      1 <0>         0.0999
     14 O1         -0.8978   -6.5770   -2.4147 O.3       1 <0>        -0.2605
     15 C13        -1.4528   -5.4998   -3.2278 C.3       1 <0>         0.0635
     16 H1         -0.8189   -5.2819   -4.0873 H         1 <0>         0.1602
     17 C14        -2.8321   -5.9204   -3.6420 C.2       1 <0>         0.3396
     18 O2         -2.9993   -7.0571   -4.0139 O.2       1 <0>        -0.4106
     19 C15        -4.0126   -4.9969   -3.6157 C.3       1 <0>        -0.1600
     20 C16        -3.9662   -4.1258   -2.3586 C.3       1 <0>        -0.1396
     21 C17        -2.6424   -3.3641   -2.3407 C.3       1 <0>         0.1455
     22 C18        -2.5801   -2.4492   -1.1149 C.3       1 <0>         0.0114
     23 H2         -3.3918   -1.7267   -1.1991 H         1 <0>         0.1436
     24 C19        -2.7615   -3.1683    0.2110 C.3       1 <0>        -0.0929
     25 O3         -2.5223   -2.5856   -3.5330 O.3       1 <0>        -0.5416
     26 O4         -0.8769   -8.5317   -0.1197 O.3       1 <0>        -0.4784
     27 H3          0.6551    2.0496   -0.1465 H         1 <0>         0.1244
     28 H4         -1.1989    1.8527    0.0058 H         1 <0>         0.1121
     29 H5          0.9051   -0.3271   -0.1750 H         1 <0>         0.1345
     30 H6         -1.2521   -1.3431    0.9398 H         1 <0>         0.1373
     31 H7         -2.1930   -0.1610   -0.0013 H         1 <0>         0.1333
     32 H8          0.7517   -2.0277   -1.0288 H         1 <0>         0.1386
     33 H9         -0.2388   -3.1877   -0.1153 H         1 <0>         0.1323
     34 H10        -0.0581   -2.9942   -3.1601 H         1 <0>         0.1101
     35 H11         0.6746   -4.2623   -2.1434 H         1 <0>         0.1196
     36 H12        -2.6236   -5.0734    2.2475 H         1 <0>         0.1419
     37 H13        -1.8059   -7.3595    2.0377 H         1 <0>         0.1457
     38 H14        -3.9926   -4.3588   -4.4992 H         1 <0>         0.1182
     39 H15        -4.9312   -5.5837   -3.6157 H         1 <0>         0.1110
     40 H16        -4.7952   -3.4182   -2.3732 H         1 <0>         0.0998
     41 H17        -4.0368   -4.7574   -1.4731 H         1 <0>         0.0957
     42 H18        -3.8263   -3.2164    0.4393 H         1 <0>         0.1278
     43 H19        -2.2654   -2.5918    0.9917 H         1 <0>         0.1086
     44 H20        -3.2345   -1.9433   -3.6567 H         1 <0>         0.3954
     45 H21        -1.5743   -9.1511   -0.3750 H         1 <0>         0.4012
     46 H22        -1.2543   -1.1748   -1.9869 H         1 <0>         0.4286
@<TRIPOS>BOND
     1    1    2 2
     2    1   27 1
     3    1   28 1
     4    2    3 1
     5    2   29 1
     6    3    4 1
     7    3   30 1
     8    3   31 1
     9    4   22 1
    10    4    5 1
    11    4   46 1
    12    5    6 1
    13    5   32 1
    14    5   33 1
    15    6    7 1
    16    6   34 1
    17    6   35 1
    18    7   15 1
    19    7   21 1
    20    7    8 1
    21    8   13 ar
    22    8    9 ar
    23    9   24 1
    24    9   10 ar
    25   10   11 ar
    26   10   36 1
    27   11   12 ar
    28   11   37 1
    29   12   13 ar
    30   12   26 1
    31   13   14 1
    32   14   15 1
    33   15   16 1
    34   15   17 1
    35   17   18 2
    36   17   19 1
    37   19   20 1
    38   19   38 1
    39   19   39 1
    40   20   21 1
    41   20   40 1
    42   20   41 1
    43   21   22 1
    44   21   25 1
    45   22   23 1
    46   22   24 1
    47   24   42 1
    48   24   43 1
    49   25   44 1
    50   26   45 1
