@<TRIPOS>MOLECULE
ZINC04215955
   58    60     0     0     0
SMALL
USER_CHARGES
N-[2-[2-[(4-ethoxyphenyl)methyl]-5-nitro-benzoimidazol-1-yl]ethyl]-N-ethyl-ethanamine
@<TRIPOS>ATOM
      1 C1          0.5458   -0.5068   -1.9638 C.3       1 <0>        -0.1891
      2 C2          0.1697    0.3281   -0.7381 C.3       1 <0>        -0.0177
      3 C3         -2.1571    0.4046   -1.4035 C.3       1 <0>        -0.0117
      4 C4         -2.2610    1.9295   -1.4713 C.3       1 <0>        -0.1882
      5 C5         -1.3602   -1.3935    0.0089 C.3       1 <0>        -0.0345
      6 C6         -0.5485   -1.6919    1.2710 C.3       1 <0>         0.0859
      7 N1         -0.7364   -3.0938    1.6524 N.pl3     1 <0>        -0.4888
      8 C7         -0.0194   -4.1740    1.1781 C.ar      1 <0>         0.0805
      9 C8          1.0222   -4.3205    0.2720 C.ar      1 <0>        -0.1078
     10 C9          1.5296   -5.5756    0.0120 C.ar      1 <0>        -0.0432
     11 C10         1.0059   -6.6918    0.6491 C.ar      1 <0>        -0.0406
     12 C11        -0.0190   -6.5667    1.5436 C.ar      1 <0>         0.0177
     13 C12        -0.5489   -5.3043    1.8232 C.ar      1 <0>         0.0542
     14 N2         -1.5404   -4.8651    2.6404 N.2       1 <0>        -0.4541
     15 C13        -1.6459   -3.5718    2.5440 C.2       1 <0>         0.3081
     16 C14        -2.6338   -2.7270    3.3065 C.3       1 <0>         0.0037
     17 C15        -2.0741   -2.4055    4.6682 C.ar      1 <0>        -0.1447
     18 C16        -2.2455   -3.2953    5.7126 C.ar      1 <0>        -0.0492
     19 C17        -1.7285   -3.0054    6.9604 C.ar      1 <0>        -0.2039
     20 C18        -1.0462   -1.8154    7.1679 C.ar      1 <0>         0.1476
     21 C19        -0.8804   -0.9217    6.1199 C.ar      1 <0>        -0.1538
     22 C20        -1.3948   -1.2186    4.8726 C.ar      1 <0>        -0.0759
     23 O1         -0.5414   -1.5255    8.3960 O.3       1 <0>        -0.3133
     24 C21        -0.7499   -2.4919    9.4278 C.3       1 <0>         0.0526
     25 C22        -0.1158   -1.9943   10.7282 C.3       1 <0>        -0.1549
     26 N3          1.5639   -8.0313    0.3569 N.pl3     1 <0>         0.0245
     27 O2          2.4781   -8.1497   -0.4392 O.2       1 <0>        -0.1459
     28 O3          1.1090   -9.0150    0.9126 O.3       1 <0>        -0.1469
     29 H1          0.4549   -1.5661   -1.7237 H         1 <0>         0.0774
     30 H2         -0.1233   -0.2626   -2.7890 H         1 <0>         0.0843
     31 H3          1.5736   -0.2864   -2.2521 H         1 <0>         0.1109
     32 H4          0.2544    1.3875   -0.9802 H         1 <0>         0.1371
     33 H5          0.8428    0.0886    0.0851 H         1 <0>         0.1282
     34 H6         -1.8030    0.0216   -2.3606 H         1 <0>         0.1354
     35 H7         -3.1380   -0.0171   -1.1839 H         1 <0>         0.1308
     36 H8         -2.5440    2.3183   -0.4931 H         1 <0>         0.0815
     37 H9         -1.2973    2.3467   -1.7632 H         1 <0>         0.0814
     38 H10        -3.0159    2.2099   -2.2060 H         1 <0>         0.1091
     39 H11        -2.4117   -1.6147    0.1924 H         1 <0>         0.1396
     40 H12        -0.9967   -2.0120   -0.8117 H         1 <0>         0.1430
     41 H13         0.5078   -1.5069    1.0757 H         1 <0>         0.1164
     42 H14        -0.8866   -1.0463    2.0815 H         1 <0>         0.1194
     43 H15         1.4329   -3.4552   -0.2270 H         1 <0>         0.1430
     44 H16         2.3399   -5.6912   -0.6926 H         1 <0>         0.1658
     45 H17        -0.4187   -7.4420    2.0340 H         1 <0>         0.1675
     46 H18        -2.8172   -1.8012    2.7612 H         1 <0>         0.0889
     47 H19        -3.5697   -3.2743    3.4183 H         1 <0>         0.1207
     48 H20        -2.7805   -4.2195    5.5516 H         1 <0>         0.1337
     49 H21        -1.8585   -3.7030    7.7746 H         1 <0>         0.1347
     50 H22        -0.3493    0.0051    6.2788 H         1 <0>         0.1340
     51 H23        -1.2661   -0.5232    4.0564 H         1 <0>         0.1175
     52 H24        -1.8195   -2.6382    9.5779 H         1 <0>         0.0664
     53 H25        -0.2910   -3.4373    9.1382 H         1 <0>         0.0651
     54 H26        -0.2748   -2.7315   11.5153 H         1 <0>         0.0836
     55 H27         0.9539   -1.8481   10.5782 H         1 <0>         0.0679
     56 H28        -0.5747   -1.0490   11.0178 H         1 <0>         0.0687
     57 N4         -1.2188    0.0404   -0.3211 N.4       1 <0>        -0.3928
     58 H29        -1.4389    0.5977    0.5127 H         1 <0>         0.4300
@<TRIPOS>BOND
     1    1    2 1
     2    1   29 1
     3    1   30 1
     4    1   31 1
     5    2   32 1
     6    2   33 1
     7    2   57 1
     8    3    4 1
     9    3   34 1
    10    3   35 1
    11    3   57 1
    12    4   36 1
    13    4   37 1
    14    4   38 1
    15    5    6 1
    16    5   39 1
    17    5   40 1
    18    5   57 1
    19    6    7 1
    20    6   41 1
    21    6   42 1
    22    7   15 1
    23    7    8 1
    24    8   13 ar
    25    8    9 ar
    26    9   10 ar
    27    9   43 1
    28   10   11 ar
    29   10   44 1
    30   11   12 ar
    31   11   26 1
    32   12   13 ar
    33   12   45 1
    34   13   14 1
    35   14   15 2
    36   15   16 1
    37   16   17 1
    38   16   46 1
    39   16   47 1
    40   17   22 ar
    41   17   18 ar
    42   18   19 ar
    43   18   48 1
    44   19   20 ar
    45   19   49 1
    46   20   21 ar
    47   20   23 1
    48   21   22 ar
    49   21   50 1
    50   22   51 1
    51   23   24 1
    52   24   25 1
    53   24   52 1
    54   24   53 1
    55   25   54 1
    56   25   55 1
    57   25   56 1
    58   26   27 2
    59   26   28 1
    60   57   58 1
