@<TRIPOS>MOLECULE
ZINC49036447
   55    59     0     0     0
SMALL
USER_CHARGES

@<TRIPOS>ATOM
      1 C1          2.8284    1.1185    0.4497 C.3       1 <0>        -0.1169
      2 C2          1.7343    0.0887    0.3337 C.ar      1 <0>        -0.0820
      3 C3          0.9424    0.0492   -0.8018 C.ar      1 <0>        -0.0836
      4 C4         -0.0637   -0.8897   -0.9195 C.ar      1 <0>        -0.1051
      5 C5         -0.2868   -1.8013    0.1021 C.ar      1 <0>         0.1815
      6 C6          0.5131   -1.7645    1.2526 C.ar      1 <0>        -0.1156
      7 C7          1.5299   -0.8135    1.3561 C.ar      1 <0>        -0.0773
      8 C8          0.2847   -2.7293    2.3467 C.2       1 <0>         0.5682
      9 O1          0.3290   -3.9235    2.1232 O.2       1 <0>        -0.4814
     10 N1          0.0272   -2.2861    3.5931 N.am      1 <0>        -0.6005
     11 C9         -0.1415   -0.8242    3.8174 C.3       1 <0>         0.0859
     12 C10        -1.2854   -0.5879    4.8343 C.3       1 <0>         0.1057
     13 N2         -2.3900   -1.4844    4.6376 N.pl3     1 <0>        -0.5528
     14 C11        -2.4280   -2.7832    5.3506 C.3       1 <0>         0.1421
     15 C12        -1.5263   -3.7489    4.7029 C.3       1 <0>        -0.1626
     16 C13        -0.0815   -3.2390    4.6601 C.3       1 <0>         0.1563
     17 H1          0.1686   -2.7615    5.6075 H         1 <0>         0.0816
     18 C14         0.8670   -4.4120    4.4047 C.3       1 <0>        -0.1598
     19 C15        -3.4145   -1.1369    3.7865 C.2       1 <0>         0.5153
     20 N3         -4.4672   -1.8742    3.5400 N.2       1 <0>        -0.5336
     21 C16        -5.2642   -1.2149    2.6547 C.ar      1 <0>         0.0813
     22 C17        -6.4853   -1.5146    2.0494 C.ar      1 <0>        -0.0741
     23 C18        -7.0523   -0.6150    1.1718 C.ar      1 <0>        -0.0228
     24 C19        -6.4152    0.5845    0.8881 C.ar      1 <0>        -0.1067
     25 C20        -5.2072    0.8921    1.4805 C.ar      1 <0>        -0.0645
     26 C21        -4.6242   -0.0008    2.3649 C.ar      1 <0>        -0.0089
     27 O2         -3.4826    0.0120    3.0914 O.3       1 <0>        -0.2323
     28 Cl1        -8.5713   -0.9852    0.4174 Cl        1 <0>        -0.0548
     29 N4         -1.3051   -2.7521   -0.0152 N.pl3     1 <0>        -0.1162
     30 N5         -1.5624   -3.6584    0.8601 N.2       1 <0>        -0.2462
     31 C22        -2.5763   -4.3783    0.4364 C.2       1 <0>        -0.0176
     32 C23        -2.9393   -3.8370   -0.8006 C.2       1 <0>        -0.0094
     33 N6         -2.1152   -2.8356   -1.0104 N.2       1 <0>        -0.2936
     34 H2          3.7523    0.7154    0.0348 H         1 <0>         0.0774
     35 H3          2.5435    2.0149   -0.1011 H         1 <0>         0.0733
     36 H4          2.9808    1.3701    1.4993 H         1 <0>         0.0713
     37 H5          1.1123    0.7568   -1.5998 H         1 <0>         0.1417
     38 H6         -0.6777   -0.9140   -1.8077 H         1 <0>         0.1479
     39 H7          2.1528   -0.7817    2.2378 H         1 <0>         0.1390
     40 H8          0.7859   -0.4073    4.2101 H         1 <0>         0.0857
     41 H9         -0.3879   -0.3378    2.8736 H         1 <0>         0.0835
     42 H10        -0.8948   -0.7255    5.8426 H         1 <0>         0.0959
     43 H11        -1.6411    0.4375    4.7329 H         1 <0>         0.0907
     44 H12        -2.1164   -2.6363    6.3847 H         1 <0>         0.0829
     45 H13        -3.4456   -3.1735    5.3352 H         1 <0>         0.1001
     46 H14        -1.5563   -4.6882    5.2551 H         1 <0>         0.0900
     47 H15        -1.8696   -3.9268    3.6837 H         1 <0>         0.0858
     48 H16         1.8366   -4.0319    4.0829 H         1 <0>         0.0521
     49 H17         0.9887   -4.9873    5.3225 H         1 <0>         0.0547
     50 H18         0.4515   -5.0525    3.6268 H         1 <0>         0.0954
     51 H19        -6.9839   -2.4476    2.2671 H         1 <0>         0.1442
     52 H20        -6.8675    1.2820    0.1987 H         1 <0>         0.1488
     53 H21        -4.7170    1.8276    1.2549 H         1 <0>         0.1409
     54 H22        -3.0350   -5.2164    0.9400 H         1 <0>         0.1978
     55 H23        -3.7360   -4.1711   -1.4487 H         1 <0>         0.2018
@<TRIPOS>BOND
     1    1    2 1
     2    1   34 1
     3    1   35 1
     4    1   36 1
     5    2    7 ar
     6    2    3 ar
     7    3    4 ar
     8    3   37 1
     9    4    5 ar
    10    4   38 1
    11    5    6 ar
    12    5   29 1
    13    6    7 ar
    14    6    8 1
    15    7   39 1
    16    8    9 2
    17    8   10 am
    18   10   16 1
    19   10   11 1
    20   11   12 1
    21   11   40 1
    22   11   41 1
    23   12   13 1
    24   12   42 1
    25   12   43 1
    26   13   14 1
    27   13   19 1
    28   14   15 1
    29   14   44 1
    30   14   45 1
    31   15   16 1
    32   15   46 1
    33   15   47 1
    34   16   17 1
    35   16   18 1
    36   18   48 1
    37   18   49 1
    38   18   50 1
    39   19   27 1
    40   19   20 2
    41   20   21 1
    42   21   26 ar
    43   21   22 ar
    44   22   23 ar
    45   22   51 1
    46   23   24 ar
    47   23   28 1
    48   24   25 ar
    49   24   52 1
    50   25   26 ar
    51   25   53 1
    52   26   27 1
    53   29   33 1
    54   29   30 1
    55   30   31 2
    56   31   32 1
    57   31   54 1
    58   32   33 2
    59   32   55 1
@<TRIPOS>MOLECULE
ZINC03960325
   46    48     0     0     0
SMALL
USER_CHARGES
3-(2,4-dibromophenyl)-1-(2,2-dimethyl-4-phenyl-1,3-dioxan-5-yl)-urea
@<TRIPOS>ATOM
      1 C1          9.0462    4.1448   -1.0653 C.3       1 <0>        -0.2084
      2 C2          7.7240    4.9059   -1.1800 C.3       1 <0>         0.2644
      3 O1          6.7543    4.0813   -1.8310 O.3       1 <0>        -0.3763
      4 C3          6.4617    2.8701   -1.1275 C.3       1 <0>         0.0416
      5 C4          5.9622    3.2197    0.2786 C.3       1 <0>         0.1086
      6 H1          5.8296    2.3053    0.8569 H         1 <0>         0.1128
      7 C5          6.9985    4.1177    0.9631 C.3       1 <0>         0.1214
      8 H2          7.9216    3.5586    1.1160 H         1 <0>         0.0909
      9 O2          7.2570    5.2496    0.1268 O.3       1 <0>        -0.3743
     10 C6          6.4625    4.5842    2.2921 C.ar      1 <0>        -0.0832
     11 C7          5.5721    5.6402    2.3460 C.ar      1 <0>        -0.0915
     12 C8          5.0771    6.0653    3.5647 C.ar      1 <0>        -0.1202
     13 C9          5.4799    5.4406    4.7302 C.ar      1 <0>        -0.1121
     14 C10         6.3740    4.3877    4.6766 C.ar      1 <0>        -0.1168
     15 C11         6.8657    3.9598    3.4576 C.ar      1 <0>        -0.1058
     16 N1          4.6842    3.9296    0.1830 N.am      1 <0>        -0.7154
     17 C12         3.5330    3.2352    0.0883 C.2       1 <0>         0.7109
     18 O3          3.5551    2.0195    0.0822 O.2       1 <0>        -0.5672
     19 N2          2.3573    3.8882    0.0004 N.am      1 <0>        -0.6793
     20 C13         1.1549    3.1711    0.0208 C.ar      1 <0>         0.2194
     21 C14         1.1001    1.9220    0.6245 C.ar      1 <0>        -0.1214
     22 C15        -0.0873    1.2168    0.6437 C.ar      1 <0>        -0.0501
     23 C16        -1.2209    1.7516    0.0573 C.ar      1 <0>        -0.1115
     24 C17        -1.1712    2.9981   -0.5405 C.ar      1 <0>        -0.0372
     25 C18         0.0143    3.7083   -0.5626 C.ar      1 <0>        -0.1294
     26 Br1         0.0838    5.4088   -1.3867 Br        1 <0>        -0.0320
     27 Br2        -2.8426    0.7793    0.0789 Br        1 <0>        -0.0375
     28 C19         7.9391    6.1818   -1.9967 C.3       1 <0>        -0.1282
     29 H3          9.4023    3.8827   -2.0616 H         1 <0>         0.0806
     30 H4          9.7855    4.7735   -0.5690 H         1 <0>         0.0800
     31 H5          8.8929    3.2359   -0.4835 H         1 <0>         0.0637
     32 H6          7.3645    2.2638   -1.0537 H         1 <0>         0.0701
     33 H7          5.6910    2.3136   -1.6607 H         1 <0>         0.1092
     34 H8          5.2606    6.1310    1.4358 H         1 <0>         0.1203
     35 H9          4.3783    6.8877    3.6066 H         1 <0>         0.1242
     36 H10         5.0958    5.7749    5.6826 H         1 <0>         0.1239
     37 H11         6.6887    3.8996    5.5872 H         1 <0>         0.1258
     38 H12         7.5645    3.1374    3.4158 H         1 <0>         0.1238
     39 H13         4.6666    4.8994    0.1880 H         1 <0>         0.4031
     40 H14         2.3442    4.8551   -0.0769 H         1 <0>         0.4117
     41 H15         1.9853    1.5022    1.0792 H         1 <0>         0.1658
     42 H16        -0.1300    0.2451    1.1129 H         1 <0>         0.1437
     43 H17        -2.0585    3.4151   -0.9935 H         1 <0>         0.1468
     44 H18         6.9971    6.7240   -2.0784 H         1 <0>         0.0723
     45 H19         8.6784    6.8105   -1.5003 H         1 <0>         0.0810
     46 H20         8.2951    5.9197   -2.9930 H         1 <0>         0.0817
@<TRIPOS>BOND
     1    1    2 1
     2    1   29 1
     3    1   30 1
     4    1   31 1
     5    2    9 1
     6    2    3 1
     7    2   28 1
     8    3    4 1
     9    4    5 1
    10    4   32 1
    11    4   33 1
    12    5    6 1
    13    5    7 1
    14    5   16 1
    15    7    8 1
    16    7    9 1
    17    7   10 1
    18   10   15 ar
    19   10   11 ar
    20   11   12 ar
    21   11   34 1
    22   12   13 ar
    23   12   35 1
    24   13   14 ar
    25   13   36 1
    26   14   15 ar
    27   14   37 1
    28   15   38 1
    29   16   17 am
    30   16   39 1
    31   17   18 2
    32   17   19 am
    33   19   20 1
    34   19   40 1
    35   20   25 ar
    36   20   21 ar
    37   21   22 ar
    38   21   41 1
    39   22   23 ar
    40   22   42 1
    41   23   24 ar
    42   23   27 1
    43   24   25 ar
    44   24   43 1
    45   25   26 1
    46   28   44 1
    47   28   45 1
    48   28   46 1
@<TRIPOS>MOLECULE
ZINC29128227
   60    64     0     0     0
SMALL
USER_CHARGES
(2S)-1-[2-(1-methylbenzimidazol-2-yl)sulfanylacetyl]-N-(2-phenylphenyl)pyrrolidine-2-carboxamide
@<TRIPOS>ATOM
      1 C1         -2.4516    2.0634    0.0516 C.3       1 <0>         0.0704
      2 N1         -1.0115    2.3316    0.0356 N.pl3     1 <0>        -0.4757
      3 C2          0.0005    1.3855    0.0202 C.ar      1 <0>         0.0532
      4 C3          0.0200   -0.0008    0.0150 C.ar      1 <0>        -0.1094
      5 C4          1.2261   -0.6706   -0.0084 C.ar      1 <0>        -0.1011
      6 C5          2.4207    0.0339   -0.0267 C.ar      1 <0>        -0.1250
      7 C6          2.4201    1.4108   -0.0218 C.ar      1 <0>        -0.0668
      8 C7          1.2072    2.1041    0.0017 C.ar      1 <0>         0.0564
      9 N2          0.8872    3.4245    0.0115 N.2       1 <0>        -0.4980
     10 C8         -0.4160    3.5614    0.0344 C.2       1 <0>         0.2452
     11 S1         -1.2723    5.1011    0.0541 S.3       1 <0>         0.0778
     12 C9          0.1324    6.2423    0.0343 C.3       1 <0>        -0.1381
     13 C10        -0.3733    7.6619    0.0477 C.2       1 <0>         0.5577
     14 O1         -1.5661    7.8805    0.0685 O.2       1 <0>        -0.5095
     15 N3          0.4999    8.6885    0.0365 N.am      1 <0>        -0.6004
     16 C11         1.9689    8.5667    0.0108 C.3       1 <0>         0.0888
     17 C12         2.4874    9.8941    0.6182 C.3       1 <0>        -0.1308
     18 C13         1.4647   10.9154    0.0540 C.3       1 <0>        -0.1207
     19 C14         0.1451   10.1152    0.0415 C.3       1 <0>         0.1291
     20 H1         -0.4839   10.3235    0.9195 H         1 <0>         0.1089
     21 C15        -0.6489   10.4502   -1.1949 C.2       1 <0>         0.5049
     22 O2         -0.8989    9.5855   -2.0078 O.2       1 <0>        -0.4977
     23 N4         -1.0810   11.7106   -1.3973 N.am      1 <0>        -0.6791
     24 C16        -1.7163   12.0475   -2.5954 C.ar      1 <0>         0.1730
     25 C17        -1.4694   11.3118   -3.7455 C.ar      1 <0>        -0.1335
     26 C18        -2.1025   11.6432   -4.9277 C.ar      1 <0>        -0.0943
     27 C19        -2.9769   12.7150   -4.9755 C.ar      1 <0>        -0.1393
     28 C20        -3.2278   13.4593   -3.8408 C.ar      1 <0>        -0.0847
     29 C21        -2.5996   13.1318   -2.6415 C.ar      1 <0>        -0.0849
     30 C22        -2.8661   13.9282   -1.4191 C.ar      1 <0>        -0.0450
     31 C23        -3.2136   13.2895   -0.2301 C.ar      1 <0>        -0.1151
     32 C24        -3.4558   14.0354    0.9056 C.ar      1 <0>        -0.1161
     33 C25        -3.3645   15.4150    0.8626 C.ar      1 <0>        -0.1173
     34 C26        -3.0252   16.0546   -0.3160 C.ar      1 <0>        -0.1160
     35 C27        -2.7756   15.3185   -1.4565 C.ar      1 <0>        -0.1050
     36 H2         -2.6222    0.9767    0.0484 H         1 <0>         0.0944
     37 H3         -2.9177    2.5104   -0.8389 H         1 <0>         0.0862
     38 H4         -2.8961    2.5017    0.9573 H         1 <0>         0.0858
     39 H5         -0.9067   -0.5552    0.0295 H         1 <0>         0.1224
     40 H6          1.2400   -1.7505   -0.0128 H         1 <0>         0.1317
     41 H7          3.3585   -0.5016   -0.0445 H         1 <0>         0.1313
     42 H8          3.3540    1.9531   -0.0365 H         1 <0>         0.1297
     43 H9          0.7590    6.0679    0.9214 H         1 <0>         0.1279
     44 H10         0.7287    6.0741   -0.8746 H         1 <0>         0.1287
     45 H11         2.2752    7.6970    0.6107 H         1 <0>         0.0864
     46 H12         2.3077    8.4338   -1.0272 H         1 <0>         0.0755
     47 H13         2.4723    9.8256    1.7160 H         1 <0>         0.0848
     48 H14         3.5169   10.0763    0.2763 H         1 <0>         0.0936
     49 H15         1.4204   11.7933    0.7153 H         1 <0>         0.0988
     50 H16         1.7778   11.2300   -0.9525 H         1 <0>         0.0873
     51 H17        -0.9336   12.4742   -0.6193 H         1 <0>         0.4329
     52 H18        -0.7847   10.4772   -3.7155 H         1 <0>         0.1440
     53 H19        -1.9113   11.0654   -5.8199 H         1 <0>         0.1251
     54 H20        -3.4647   12.9701   -5.9047 H         1 <0>         0.1247
     55 H21        -3.9108   14.2949   -3.8825 H         1 <0>         0.1263
     56 H22        -3.2896   12.2127   -0.1965 H         1 <0>         0.1230
     57 H23        -3.7208   13.5412    1.8286 H         1 <0>         0.1246
     58 H24        -3.5593   15.9949    1.7526 H         1 <0>         0.1233
     59 H25        -2.9550   17.1319   -0.3437 H         1 <0>         0.1249
     60 H26        -2.5111   15.8190   -2.3763 H         1 <0>         0.1248
@<TRIPOS>BOND
     1    1    2 1
     2    1   36 1
     3    1   37 1
     4    1   38 1
     5    2   10 1
     6    2    3 1
     7    3    8 ar
     8    3    4 ar
     9    4    5 ar
    10    4   39 1
    11    5    6 ar
    12    5   40 1
    13    6    7 ar
    14    6   41 1
    15    7    8 ar
    16    7   42 1
    17    8    9 1
    18    9   10 2
    19   10   11 1
    20   11   12 1
    21   12   13 1
    22   12   43 1
    23   12   44 1
    24   13   14 2
    25   13   15 am
    26   15   19 1
    27   15   16 1
    28   16   17 1
    29   16   45 1
    30   16   46 1
    31   17   18 1
    32   17   47 1
    33   17   48 1
    34   18   19 1
    35   18   49 1
    36   18   50 1
    37   19   20 1
    38   19   21 1
    39   21   22 2
    40   21   23 am
    41   23   24 1
    42   23   51 1
    43   24   29 ar
    44   24   25 ar
    45   25   26 ar
    46   25   52 1
    47   26   27 ar
    48   26   53 1
    49   27   28 ar
    50   27   54 1
    51   28   29 ar
    52   28   55 1
    53   29   30 1
    54   30   35 ar
    55   30   31 ar
    56   31   32 ar
    57   31   56 1
    58   32   33 ar
    59   32   57 1
    60   33   34 ar
    61   33   58 1
    62   34   35 ar
    63   34   59 1
    64   35   60 1
@<TRIPOS>MOLECULE
ZINC29128228
   62    66     0     0     0
SMALL
USER_CHARGES
(2S)-1-[3-(1-methylbenzimidazol-2-yl)propanoyl]-N-(2-phenylphenyl)pyrrolidine-2-carboxamide
@<TRIPOS>ATOM
      1 C1         -3.0735    4.9227    0.0218 C.3       1 <0>         0.0733
      2 N1         -2.5612    3.5502    0.0198 N.pl3     1 <0>        -0.4911
      3 C2         -1.2334    3.1724    0.0082 C.ar      1 <0>         0.0458
      4 C3         -0.0309    3.8661   -0.0051 C.ar      1 <0>        -0.1120
      5 C4          1.1589    3.1698   -0.0145 C.ar      1 <0>        -0.1011
      6 C5          1.1618    1.7820   -0.0114 C.ar      1 <0>        -0.1285
      7 C6         -0.0117    1.0829    0.0021 C.ar      1 <0>        -0.0631
      8 C7         -1.2300    1.7674    0.0064 C.ar      1 <0>         0.0456
      9 N2         -2.5279    1.3687    0.0252 N.2       1 <0>        -0.4867
     10 C8         -3.3057    2.4117    0.0298 C.2       1 <0>         0.2844
     11 C9         -4.8119    2.3653    0.0447 C.3       1 <0>        -0.0278
     12 C10        -5.3358    2.3461   -1.3927 C.3       1 <0>        -0.1276
     13 C11        -6.8420    2.2996   -1.3778 C.2       1 <0>         0.5407
     14 O1         -7.4378    2.2835   -0.3215 O.2       1 <0>        -0.5196
     15 N3         -7.5270    2.2760   -2.5382 N.am      1 <0>        -0.6077
     16 C12        -6.9328    2.2979   -3.8873 C.3       1 <0>         0.0932
     17 C13        -8.0038    1.6455   -4.8004 C.3       1 <0>        -0.1346
     18 C14        -9.3155    2.1911   -4.1766 C.3       1 <0>        -0.1211
     19 C15        -8.9907    2.2306   -2.6685 C.3       1 <0>         0.1270
     20 H1         -9.4206    3.1092   -2.1653 H         1 <0>         0.1056
     21 C16        -9.5270    0.9931   -1.9961 C.2       1 <0>         0.5055
     22 O2         -8.7659    0.2177   -1.4571 O.2       1 <0>        -0.4945
     23 N4        -10.8522    0.7480   -1.9937 N.am      1 <0>        -0.6812
     24 C17       -11.3396   -0.4536   -1.4729 C.ar      1 <0>         0.1734
     25 C18       -10.5271   -1.5776   -1.4370 C.ar      1 <0>        -0.1331
     26 C19       -11.0108   -2.7645   -0.9218 C.ar      1 <0>        -0.0942
     27 C20       -12.3056   -2.8404   -0.4387 C.ar      1 <0>        -0.1394
     28 C21       -13.1251   -1.7304   -0.4676 C.ar      1 <0>        -0.0850
     29 C22       -12.6473   -0.5266   -0.9802 C.ar      1 <0>        -0.0856
     30 C23       -13.5220    0.6707   -1.0083 C.ar      1 <0>        -0.0445
     31 C24       -13.0621    1.8850   -0.5017 C.ar      1 <0>        -0.1146
     32 C25       -13.8786    2.9972   -0.5353 C.ar      1 <0>        -0.1164
     33 C26       -15.1551    2.9058   -1.0603 C.ar      1 <0>        -0.1176
     34 C27       -15.6188    1.7018   -1.5592 C.ar      1 <0>        -0.1161
     35 C28       -14.8091    0.5845   -1.5361 C.ar      1 <0>        -0.1052
     36 H2         -2.2301    5.6289    0.0118 H         1 <0>         0.0903
     37 H3         -3.6785    5.0869    0.9257 H         1 <0>         0.0827
     38 H4         -3.6964    5.0828   -0.8706 H         1 <0>         0.0800
     39 H5         -0.0275    4.9461   -0.0076 H         1 <0>         0.1209
     40 H6          2.0952    3.7080   -0.0248 H         1 <0>         0.1303
     41 H7          2.1013    1.2494   -0.0192 H         1 <0>         0.1300
     42 H8          0.0020    0.0030    0.0048 H         1 <0>         0.1293
     43 H9         -5.1456    1.4575    0.5688 H         1 <0>         0.1120
     44 H10        -5.2010    3.2530    0.5650 H         1 <0>         0.0931
     45 H11        -5.0021    3.2539   -1.9167 H         1 <0>         0.0925
     46 H12        -4.9467    1.4585   -1.9130 H         1 <0>         0.1051
     47 H13        -6.7255    3.3378   -4.1798 H         1 <0>         0.0751
     48 H14        -5.9944    1.7239   -3.8840 H         1 <0>         0.0810
     49 H15        -7.8476    1.9714   -5.8393 H         1 <0>         0.0932
     50 H16        -7.9171    0.5504   -4.7427 H         1 <0>         0.0800
     51 H17        -9.5310    3.1877   -4.5894 H         1 <0>         0.0957
     52 H18       -10.1454    1.5090   -4.4131 H         1 <0>         0.0904
     53 H19       -11.5502    1.4939   -2.4017 H         1 <0>         0.4321
     54 H20        -9.5156   -1.5244   -1.8119 H         1 <0>         0.1442
     55 H21       -10.3754   -3.6374   -0.8955 H         1 <0>         0.1253
     56 H22       -12.6761   -3.7721   -0.0372 H         1 <0>         0.1246
     57 H23       -14.1347   -1.7939   -0.0893 H         1 <0>         0.1261
     58 H24       -12.0671    1.9566   -0.0878 H         1 <0>         0.1229
     59 H25       -13.5217    3.9397   -0.1471 H         1 <0>         0.1243
     60 H26       -15.7919    3.7778   -1.0811 H         1 <0>         0.1232
     61 H27       -16.6163    1.6362   -1.9679 H         1 <0>         0.1248
     62 H28       -15.1719   -0.3548   -1.9265 H         1 <0>         0.1248
@<TRIPOS>BOND
     1    1    2 1
     2    1   36 1
     3    1   37 1
     4    1   38 1
     5    2   10 1
     6    2    3 1
     7    3    8 ar
     8    3    4 ar
     9    4    5 ar
    10    4   39 1
    11    5    6 ar
    12    5   40 1
    13    6    7 ar
    14    6   41 1
    15    7    8 ar
    16    7   42 1
    17    8    9 1
    18    9   10 2
    19   10   11 1
    20   11   12 1
    21   11   43 1
    22   11   44 1
    23   12   13 1
    24   12   45 1
    25   12   46 1
    26   13   14 2
    27   13   15 am
    28   15   19 1
    29   15   16 1
    30   16   17 1
    31   16   47 1
    32   16   48 1
    33   17   18 1
    34   17   49 1
    35   17   50 1
    36   18   19 1
    37   18   51 1
    38   18   52 1
    39   19   20 1
    40   19   21 1
    41   21   22 2
    42   21   23 am
    43   23   24 1
    44   23   53 1
    45   24   29 ar
    46   24   25 ar
    47   25   26 ar
    48   25   54 1
    49   26   27 ar
    50   26   55 1
    51   27   28 ar
    52   27   56 1
    53   28   29 ar
    54   28   57 1
    55   29   30 1
    56   30   35 ar
    57   30   31 ar
    58   31   32 ar
    59   31   58 1
    60   32   33 ar
    61   32   59 1
    62   33   34 ar
    63   33   60 1
    64   34   35 ar
    65   34   61 1
    66   35   62 1
@<TRIPOS>MOLECULE
ZINC29128228
   63    67     0     0     0
SMALL
USER_CHARGES
(2S)-1-[3-(1-methylbenzimidazol-2-yl)propanoyl]-N-(2-phenylphenyl)pyrrolidine-2-carboxamide
@<TRIPOS>ATOM
      1 C1         -3.0735    4.9227    0.0218 C.3       1 <0>         0.0539
      2 N1         -2.5612    3.5502    0.0198 N.pl3     1 <0>        -0.4304
      3 C2         -1.2334    3.1724    0.0082 C.ar      1 <0>         0.0738
      4 C3         -0.0309    3.8661   -0.0051 C.ar      1 <0>        -0.0907
      5 C4          1.1589    3.1698   -0.0145 C.ar      1 <0>        -0.0670
      6 C5          1.1618    1.7820   -0.0114 C.ar      1 <0>        -0.0809
      7 C6         -0.0117    1.0829    0.0021 C.ar      1 <0>        -0.0770
      8 C7         -1.2300    1.7674    0.0064 C.ar      1 <0>         0.0410
      9 N2         -2.5279    1.3687    0.0252 N.pl3     1 <0>        -0.5054
     10 C8         -3.3057    2.4117    0.0298 C.cat     1 <0>         0.3995
     11 C9         -4.8119    2.3653    0.0447 C.3       1 <0>        -0.0681
     12 C10        -5.3358    2.3461   -1.3927 C.3       1 <0>        -0.1374
     13 C11        -6.8420    2.2996   -1.3778 C.2       1 <0>         0.5386
     14 O1         -7.4378    2.2835   -0.3215 O.2       1 <0>        -0.5152
     15 N3         -7.5270    2.2760   -2.5382 N.am      1 <0>        -0.6017
     16 C12        -6.9328    2.2979   -3.8873 C.3       1 <0>         0.0923
     17 C13        -8.0038    1.6455   -4.8004 C.3       1 <0>        -0.1349
     18 C14        -9.3155    2.1911   -4.1766 C.3       1 <0>        -0.1237
     19 C15        -8.9907    2.2306   -2.6685 C.3       1 <0>         0.1263
     20 H1         -9.4206    3.1092   -2.1653 H         1 <0>         0.1099
     21 C16        -9.5270    0.9931   -1.9961 C.2       1 <0>         0.5087
     22 O2         -8.7659    0.2177   -1.4571 O.2       1 <0>        -0.5058
     23 N4        -10.8522    0.7480   -1.9937 N.am      1 <0>        -0.6772
     24 C17       -11.3396   -0.4536   -1.4729 C.ar      1 <0>         0.1671
     25 C18       -10.5271   -1.5776   -1.4370 C.ar      1 <0>        -0.1329
     26 C19       -11.0108   -2.7645   -0.9218 C.ar      1 <0>        -0.0966
     27 C20       -12.3056   -2.8404   -0.4387 C.ar      1 <0>        -0.1349
     28 C21       -13.1251   -1.7304   -0.4676 C.ar      1 <0>        -0.0841
     29 C22       -12.6473   -0.5266   -0.9802 C.ar      1 <0>        -0.0794
     30 C23       -13.5220    0.6707   -1.0083 C.ar      1 <0>        -0.0492
     31 C24       -13.0621    1.8850   -0.5017 C.ar      1 <0>        -0.1162
     32 C25       -13.8786    2.9972   -0.5353 C.ar      1 <0>        -0.1171
     33 C26       -15.1551    2.9058   -1.0603 C.ar      1 <0>        -0.1148
     34 C27       -15.6188    1.7018   -1.5592 C.ar      1 <0>        -0.1138
     35 C28       -14.8091    0.5845   -1.5361 C.ar      1 <0>        -0.1034
     36 H2         -2.2301    5.6289    0.0118 H         1 <0>         0.1190
     37 H3         -3.6785    5.0869    0.9257 H         1 <0>         0.1117
     38 H4         -3.6964    5.0828   -0.8706 H         1 <0>         0.1088
     39 H5         -0.0275    4.9461   -0.0076 H         1 <0>         0.1495
     40 H6          2.0952    3.7080   -0.0248 H         1 <0>         0.1559
     41 H7          2.1013    1.2494   -0.0192 H         1 <0>         0.1557
     42 H8          0.0020    0.0030    0.0048 H         1 <0>         0.1520
     43 H9         -5.1456    1.4575    0.5688 H         1 <0>         0.1366
     44 H10        -5.2010    3.2530    0.5650 H         1 <0>         0.1334
     45 H11        -5.0021    3.2539   -1.9167 H         1 <0>         0.1060
     46 H12        -4.9467    1.4585   -1.9130 H         1 <0>         0.1083
     47 H13        -6.7255    3.3378   -4.1798 H         1 <0>         0.0789
     48 H14        -5.9944    1.7239   -3.8840 H         1 <0>         0.0776
     49 H15        -7.8476    1.9714   -5.8393 H         1 <0>         0.0970
     50 H16        -7.9171    0.5504   -4.7427 H         1 <0>         0.0812
     51 H17        -9.5310    3.1877   -4.5894 H         1 <0>         0.0993
     52 H18       -10.1454    1.5090   -4.4131 H         1 <0>         0.0947
     53 H19       -11.5502    1.4939   -2.4017 H         1 <0>         0.4349
     54 H20        -9.5156   -1.5244   -1.8119 H         1 <0>         0.1419
     55 H21       -10.3754   -3.6374   -0.8955 H         1 <0>         0.1252
     56 H22       -12.6761   -3.7721   -0.0372 H         1 <0>         0.1267
     57 H23       -14.1347   -1.7939   -0.0893 H         1 <0>         0.1285
     58 H24       -12.0671    1.9566   -0.0878 H         1 <0>         0.1207
     59 H25       -13.5217    3.9397   -0.1471 H         1 <0>         0.1243
     60 H26       -15.7919    3.7778   -1.0811 H         1 <0>         0.1250
     61 H27       -16.6163    1.6362   -1.9679 H         1 <0>         0.1270
     62 H28       -15.1719   -0.3548   -1.9265 H         1 <0>         0.1259
     63 H29        -2.7739    0.2966    0.0339 H         1 <0>         0.5008
@<TRIPOS>BOND
     1    1    2 1
     2    1   36 1
     3    1   37 1
     4    1   38 1
     5    2   10 1
     6    2    3 1
     7    3    8 ar
     8    3    4 ar
     9    4    5 ar
    10    4   39 1
    11    5    6 ar
    12    5   40 1
    13    6    7 ar
    14    6   41 1
    15    7    8 ar
    16    7   42 1
    17    8    9 1
    18    9   10 2
    19    9   63 1
    20   10   11 1
    21   11   12 1
    22   11   43 1
    23   11   44 1
    24   12   13 1
    25   12   45 1
    26   12   46 1
    27   13   14 2
    28   13   15 am
    29   15   19 1
    30   15   16 1
    31   16   17 1
    32   16   47 1
    33   16   48 1
    34   17   18 1
    35   17   49 1
    36   17   50 1
    37   18   19 1
    38   18   51 1
    39   18   52 1
    40   19   20 1
    41   19   21 1
    42   21   22 2
    43   21   23 am
    44   23   24 1
    45   23   53 1
    46   24   29 ar
    47   24   25 ar
    48   25   26 ar
    49   25   54 1
    50   26   27 ar
    51   26   55 1
    52   27   28 ar
    53   27   56 1
    54   28   29 ar
    55   28   57 1
    56   29   30 1
    57   30   35 ar
    58   30   31 ar
    59   31   32 ar
    60   31   58 1
    61   32   33 ar
    62   32   59 1
    63   33   34 ar
    64   33   60 1
    65   34   35 ar
    66   34   61 1
    67   35   62 1
@<TRIPOS>MOLECULE
ZINC35953488
   68    71     0     0     0
SMALL
USER_CHARGES

@<TRIPOS>ATOM
      1 C1          0.1332    0.8106    1.1210 C.3       1 <0>         0.0834
      2 N1          0.0460   -0.5520    0.5901 N.am      1 <0>        -0.7316
      3 C2          0.5894   -0.8446   -0.6080 C.2       1 <0>         0.4902
      4 O1          1.1506    0.0202   -1.2467 O.2       1 <0>        -0.5293
      5 C3          0.4997   -2.2463   -1.1540 C.3       1 <0>         0.1007
      6 H1          1.2127   -2.8855   -0.6332 H         1 <0>         0.1247
      7 C4         -0.8954   -2.7776   -0.9475 C.ar      1 <0>        -0.0779
      8 C5         -1.7254   -2.9809   -2.0340 C.ar      1 <0>        -0.0992
      9 C6         -3.0051   -3.4682   -1.8445 C.ar      1 <0>        -0.1162
     10 C7         -3.4545   -3.7526   -0.5686 C.ar      1 <0>        -0.1161
     11 C8         -2.6241   -3.5502    0.5179 C.ar      1 <0>        -0.1128
     12 C9         -1.3430   -3.0669    0.3280 C.ar      1 <0>        -0.1277
     13 N2          0.8112   -2.2335   -2.5895 N.3       1 <0>        -0.4910
     14 C10         0.0949   -1.1460   -3.2750 C.3       1 <0>         0.0202
     15 C11         0.1568   -1.3983   -4.7816 C.3       1 <0>        -0.0712
     16 C12         1.5804   -1.6621   -5.2013 C.ar      1 <0>        -0.0613
     17 C13         1.9011   -1.5591   -6.5470 C.ar      1 <0>        -0.1735
     18 C14         3.1937   -1.7964   -6.9785 C.ar      1 <0>         0.1022
     19 C15         4.1762   -2.1409   -6.0545 C.ar      1 <0>         0.0999
     20 C16         3.8516   -2.2406   -4.7137 C.ar      1 <0>        -0.1696
     21 C17         2.5539   -1.9991   -4.2852 C.ar      1 <0>        -0.0598
     22 C18         2.2551   -2.1101   -2.8128 C.3       1 <0>         0.1205
     23 H2          2.6230   -1.2197   -2.3030 H         1 <0>         0.0802
     24 C19         2.9609   -3.3435   -2.2459 C.3       1 <0>        -0.1063
     25 C20         2.3650   -4.6054   -2.8731 C.3       1 <0>        -0.0793
     26 C21         2.9776   -5.8231   -2.2305 C.ar      1 <0>        -0.0441
     27 C22         4.1289   -6.3776   -2.7577 C.ar      1 <0>        -0.1203
     28 C23         4.6908   -7.4946   -2.1682 C.ar      1 <0>        -0.0668
     29 C24         4.1015   -8.0569   -1.0512 C.ar      1 <0>        -0.1903
     30 C25         2.9507   -7.5019   -0.5235 C.ar      1 <0>        -0.0670
     31 C26         2.3912   -6.3823   -1.1105 C.ar      1 <0>        -0.1186
     32 C27         4.7135   -9.2752   -0.4092 C.3       1 <0>         0.5076
     33 F1          5.6338   -8.8758    0.5659 F         1 <0>        -0.1773
     34 F2          3.7074  -10.0437    0.1861 F         1 <0>        -0.1775
     35 F3          5.3675  -10.0370   -1.3834 F         1 <0>        -0.1774
     36 O2          5.4496   -2.3790   -6.4684 O.3       1 <0>        -0.3058
     37 C28         6.4039   -2.7275   -5.4635 C.3       1 <0>         0.0261
     38 O3          3.5033   -1.6933   -8.2987 O.3       1 <0>        -0.3068
     39 C29         2.4433   -1.3352   -9.1876 C.3       1 <0>         0.0265
     40 H3          1.1806    1.0912    1.2313 H         1 <0>         0.0612
     41 H4         -0.3573    1.5003    0.4339 H         1 <0>         0.0607
     42 H5         -0.3590    0.8543    2.0925 H         1 <0>         0.0760
     43 H6         -0.4029   -1.2437    1.1010 H         1 <0>         0.4016
     44 H7         -1.3743   -2.7587   -3.0308 H         1 <0>         0.1434
     45 H8         -3.6539   -3.6263   -2.6933 H         1 <0>         0.1237
     46 H9         -4.4545   -4.1326   -0.4205 H         1 <0>         0.1226
     47 H10        -2.9753   -3.7721    1.5148 H         1 <0>         0.1248
     48 H11        -0.6929   -2.9123    1.1765 H         1 <0>         0.1197
     49 H12        -0.9450   -1.1299   -2.9488 H         1 <0>         0.0842
     50 H13         0.5692   -0.1923   -3.0435 H         1 <0>         0.0825
     51 H14        -0.4595   -2.2624   -5.0294 H         1 <0>         0.0811
     52 H15        -0.2202   -0.5231   -5.3108 H         1 <0>         0.0783
     53 H16         1.1369   -1.2924   -7.2621 H         1 <0>         0.1340
     54 H17         4.6128   -2.5083   -3.9958 H         1 <0>         0.1356
     55 H18         4.0250   -3.2910   -2.4761 H         1 <0>         0.0730
     56 H19         2.8241   -3.3757   -1.1650 H         1 <0>         0.0658
     57 H20         1.2865   -4.6150   -2.7155 H         1 <0>         0.0944
     58 H21         2.5760   -4.6140   -3.9425 H         1 <0>         0.0779
     59 H22         4.5892   -5.9383   -3.6303 H         1 <0>         0.1318
     60 H23         5.5899   -7.9281   -2.5805 H         1 <0>         0.1344
     61 H24         2.4902   -7.9414    0.3489 H         1 <0>         0.1343
     62 H25         1.4942   -5.9465   -0.6960 H         1 <0>         0.1334
     63 H26         7.3768   -2.8903   -5.9272 H         1 <0>         0.1007
     64 H27         6.4785   -1.9183   -4.7370 H         1 <0>         0.0542
     65 H28         6.0844   -3.6398   -4.9597 H         1 <0>         0.0537
     66 H29         1.6524   -2.0831   -9.1298 H         1 <0>         0.0547
     67 H30         2.0441   -0.3616   -8.9034 H         1 <0>         0.0544
     68 H31         2.8247   -1.2879  -10.2075 H         1 <0>         0.1004
@<TRIPOS>BOND
     1    1    2 1
     2    1   40 1
     3    1   41 1
     4    1   42 1
     5    2    3 am
     6    2   43 1
     7    3    4 2
     8    3    5 1
     9    5    6 1
    10    5    7 1
    11    5   13 1
    12    7   12 ar
    13    7    8 ar
    14    8    9 ar
    15    8   44 1
    16    9   10 ar
    17    9   45 1
    18   10   11 ar
    19   10   46 1
    20   11   12 ar
    21   11   47 1
    22   12   48 1
    23   13   22 1
    24   13   14 1
    25   14   15 1
    26   14   49 1
    27   14   50 1
    28   15   16 1
    29   15   51 1
    30   15   52 1
    31   16   21 ar
    32   16   17 ar
    33   17   18 ar
    34   17   53 1
    35   18   19 ar
    36   18   38 1
    37   19   20 ar
    38   19   36 1
    39   20   21 ar
    40   20   54 1
    41   21   22 1
    42   22   23 1
    43   22   24 1
    44   24   25 1
    45   24   55 1
    46   24   56 1
    47   25   26 1
    48   25   57 1
    49   25   58 1
    50   26   31 ar
    51   26   27 ar
    52   27   28 ar
    53   27   59 1
    54   28   29 ar
    55   28   60 1
    56   29   30 ar
    57   29   32 1
    58   30   31 ar
    59   30   61 1
    60   31   62 1
    61   32   33 1
    62   32   34 1
    63   32   35 1
    64   36   37 1
    65   37   63 1
    66   37   64 1
    67   37   65 1
    68   38   39 1
    69   39   66 1
    70   39   67 1
    71   39   68 1
@<TRIPOS>MOLECULE
ZINC35953488
   69    72     0     0     0
SMALL
USER_CHARGES

@<TRIPOS>ATOM
      1 C1         -0.5693    0.5729   -1.2642 C.3       1 <0>         0.0772
      2 N1         -0.4546   -0.8338   -0.8716 N.am      1 <0>        -0.6940
      3 C2         -1.5644   -1.5549   -0.6168 C.2       1 <0>         0.5131
      4 O1         -2.6579   -1.0393   -0.7125 O.2       1 <0>        -0.5148
      5 C3         -1.4464   -3.0020   -0.2130 C.3       1 <0>         0.0581
      6 H1         -0.9454   -3.5603   -1.0038 H         1 <0>         0.1683
      7 C4         -0.6453   -3.1048    1.0593 C.ar      1 <0>        -0.1366
      8 C5         -1.1300   -2.5483    2.2282 C.ar      1 <0>        -0.1157
      9 C6         -0.3952   -2.6426    3.3952 C.ar      1 <0>        -0.0950
     10 C7          0.8242   -3.2938    3.3936 C.ar      1 <0>        -0.0802
     11 C8          1.3085   -3.8511    2.2249 C.ar      1 <0>        -0.0993
     12 C9          0.5716   -3.7605    1.0588 C.ar      1 <0>        -0.0987
     13 N2         -2.7874   -3.5601    0.0064 N.4       1 <0>        -0.3621
     14 C10        -3.6423   -3.2566   -1.1515 C.3       1 <0>        -0.0526
     15 C11        -5.0931   -3.5668   -0.7810 C.3       1 <0>        -0.0943
     16 C12        -5.1869   -4.9576   -0.2066 C.ar      1 <0>        -0.0802
     17 C13        -6.4334   -5.5603   -0.1295 C.ar      1 <0>        -0.1671
     18 C14        -6.5625   -6.8342    0.3946 C.ar      1 <0>         0.1325
     19 C15        -5.4331   -7.5115    0.8457 C.ar      1 <0>         0.1152
     20 C16        -4.1920   -6.9062    0.7647 C.ar      1 <0>        -0.1618
     21 C17        -4.0672   -5.6289    0.2372 C.ar      1 <0>        -0.1231
     22 C18        -2.6940   -5.0144    0.1621 C.3       1 <0>         0.0908
     23 H2         -2.1588   -5.4334   -0.6900 H         1 <0>         0.1419
     24 C19        -1.9268   -5.3359    1.4462 C.3       1 <0>        -0.1920
     25 C20        -1.1450   -6.6380    1.2607 C.3       1 <0>        -0.0825
     26 C21        -0.4332   -6.9835    2.5433 C.ar      1 <0>        -0.0570
     27 C22         0.8988   -6.6514    2.7055 C.ar      1 <0>        -0.1165
     28 C23         1.5518   -6.9684    3.8820 C.ar      1 <0>        -0.0657
     29 C24         0.8727   -7.6170    4.8963 C.ar      1 <0>        -0.1737
     30 C25        -0.4596   -7.9483    4.7344 C.ar      1 <0>        -0.0626
     31 C26        -1.1137   -7.6275    3.5596 C.ar      1 <0>        -0.1172
     32 C27         1.5848   -7.9635    6.1785 C.3       1 <0>         0.5049
     33 F1          1.4540   -6.9059    7.0850 F         1 <0>        -0.1747
     34 F2          1.0210   -9.1203    6.7271 F         1 <0>        -0.1738
     35 F3          2.9404   -8.1857    5.9136 F         1 <0>        -0.1743
     36 O2         -5.5495   -8.7632    1.3645 O.3       1 <0>        -0.2949
     37 C28        -4.3474   -9.3964    1.8072 C.3       1 <0>         0.0207
     38 O3         -7.7867   -7.4217    0.4690 O.3       1 <0>        -0.2964
     39 C29        -8.8995   -6.6657   -0.0128 C.3       1 <0>         0.0210
     40 H3          0.4258    0.9870   -1.4269 H         1 <0>         0.0924
     41 H4         -1.1487    0.6473   -2.1844 H         1 <0>         0.0753
     42 H5         -1.0703    1.1312   -0.4733 H         1 <0>         0.0744
     43 H6          0.4200   -1.2462   -0.7951 H         1 <0>         0.4134
     44 H7         -2.0827   -2.0395    2.2295 H         1 <0>         0.1270
     45 H8         -0.7736   -2.2071    4.3083 H         1 <0>         0.1391
     46 H9          1.3986   -3.3668    4.3052 H         1 <0>         0.1382
     47 H10         2.2613   -4.3596    2.2235 H         1 <0>         0.1415
     48 H11         0.9483   -4.1992    0.1466 H         1 <0>         0.1401
     49 H12        -3.5480   -2.2018   -1.4096 H         1 <0>         0.1898
     50 H13        -3.3416   -3.8718   -1.9996 H         1 <0>         0.1249
     51 H14        -5.4405   -2.8452   -0.0416 H         1 <0>         0.1030
     52 H15        -5.7169   -3.5000   -1.6723 H         1 <0>         0.1222
     53 H16        -7.3080   -5.0324   -0.4800 H         1 <0>         0.1472
     54 H17        -3.3150   -7.4306    1.1145 H         1 <0>         0.1515
     55 H18        -1.2337   -4.5245    1.6681 H         1 <0>         0.1360
     56 H19        -2.6302   -5.4488    2.2711 H         1 <0>         0.0965
     57 H20        -1.8339   -7.4413    0.9997 H         1 <0>         0.0868
     58 H21        -0.4141   -6.5123    0.4620 H         1 <0>         0.0868
     59 H22         1.4295   -6.1447    1.9131 H         1 <0>         0.1364
     60 H23         2.5927   -6.7096    4.0085 H         1 <0>         0.1393
     61 H24        -0.9901   -8.4554    5.5268 H         1 <0>         0.1397
     62 H25        -2.1556   -7.8830    3.4346 H         1 <0>         0.1303
     63 H26        -3.6562   -9.4897    0.9696 H         1 <0>         0.0583
     64 H27        -3.8881   -8.7956    2.5921 H         1 <0>         0.0555
     65 H28        -4.5810  -10.3869    2.1975 H         1 <0>         0.1113
     66 H29        -8.9837   -5.7400    0.5566 H         1 <0>         0.0602
     67 H30        -8.7506   -6.4315   -1.0669 H         1 <0>         0.0605
     68 H31        -9.8129   -7.2487    0.1043 H         1 <0>         0.1106
     69 H32        -3.1891   -3.1564    0.8393 H         1 <0>         0.4255
@<TRIPOS>BOND
     1    1    2 1
     2    1   40 1
     3    1   41 1
     4    1   42 1
     5    2    3 am
     6    2   43 1
     7    3    4 2
     8    3    5 1
     9    5    6 1
    10    5    7 1
    11    5   13 1
    12    7   12 ar
    13    7    8 ar
    14    8    9 ar
    15    8   44 1
    16    9   10 ar
    17    9   45 1
    18   10   11 ar
    19   10   46 1
    20   11   12 ar
    21   11   47 1
    22   12   48 1
    23   13   22 1
    24   13   14 1
    25   13   69 1
    26   14   15 1
    27   14   49 1
    28   14   50 1
    29   15   16 1
    30   15   51 1
    31   15   52 1
    32   16   21 ar
    33   16   17 ar
    34   17   18 ar
    35   17   53 1
    36   18   19 ar
    37   18   38 1
    38   19   20 ar
    39   19   36 1
    40   20   21 ar
    41   20   54 1
    42   21   22 1
    43   22   23 1
    44   22   24 1
    45   24   25 1
    46   24   55 1
    47   24   56 1
    48   25   26 1
    49   25   57 1
    50   25   58 1
    51   26   31 ar
    52   26   27 ar
    53   27   28 ar
    54   27   59 1
    55   28   29 ar
    56   28   60 1
    57   29   30 ar
    58   29   32 1
    59   30   31 ar
    60   30   61 1
    61   31   62 1
    62   32   33 1
    63   32   34 1
    64   32   35 1
    65   36   37 1
    66   37   63 1
    67   37   64 1
    68   37   65 1
    69   38   39 1
    70   39   66 1
    71   39   67 1
    72   39   68 1
