@<TRIPOS>MOLECULE
ZINC01683110
   35    37     0     0     0
SMALL
USER_CHARGES

@<TRIPOS>ATOM
      1 C1         -0.0178    1.4608    0.0101 C.3       1 <0>         0.0858
      2 N1          0.0021   -0.0041    0.0020 N.am      1 <0>        -0.7307
      3 C2          0.5851   -0.6645   -1.0180 C.2       1 <0>         0.5150
      4 O1          1.0933   -0.0461   -1.9292 O.2       1 <0>        -0.5025
      5 C3          0.6055   -2.1713   -1.0263 C.3       1 <0>         0.0318
      6 H1         -0.4062   -2.5682   -0.9422 H         1 <0>         0.1226
      7 C4          1.5005   -2.7114    0.1182 C.3       1 <0>         0.0507
      8 H2          2.3775   -2.0793    0.2574 H         1 <0>         0.0950
      9 C5          1.9044   -4.1068   -0.4169 C.3       1 <0>         0.0831
     10 H3          2.9518   -4.3118   -0.1954 H         1 <0>         0.0900
     11 C6          1.6847   -4.0058   -1.9388 C.3       1 <0>         0.3141
     12 H4          0.9189   -4.7160   -2.2506 H         1 <0>         0.1319
     13 O2          1.2474   -2.6645   -2.2218 O.3       1 <0>        -0.3270
     14 N2          2.9388   -4.2849   -2.6427 N.pl3     1 <0>        -0.4754
     15 C7          3.8437   -3.3616   -3.0753 C.2       1 <0>         0.2663
     16 N3          4.8419   -3.9575   -3.6601 N.2       1 <0>        -0.4588
     17 C8          4.6419   -5.2972   -3.6401 C.ar      1 <0>        -0.1080
     18 C9          3.4209   -5.5237   -2.9822 C.ar      1 <0>         0.3101
     19 N4          2.9940   -6.7723   -2.8248 N.ar      1 <0>        -0.5540
     20 C10         3.7034   -7.7857   -3.2750 C.ar      1 <0>         0.3667
     21 N5          4.8573   -7.6228   -3.8960 N.ar      1 <0>        -0.5907
     22 C11         5.3602   -6.4108   -4.1073 C.ar      1 <0>         0.5098
     23 N6          6.5708   -6.2501   -4.7583 N.pl3     1 <0>        -0.8163
     24 O3          1.0679   -5.1196    0.1458 O.3       1 <0>        -0.5315
     25 O4          0.7592   -2.8258    1.3345 O.3       1 <0>        -0.5363
     26 H5          1.0048    1.8381    0.0023 H         1 <0>         0.0653
     27 H6         -0.5450    1.8219   -0.8730 H         1 <0>         0.0657
     28 H7         -0.5280    1.8123    0.9069 H         1 <0>         0.0830
     29 H8         -0.4044   -0.4986    0.7308 H         1 <0>         0.3997
     30 H9          3.7463   -2.2932   -2.9513 H         1 <0>         0.2250
     31 H10         3.3278   -8.7880   -3.1306 H         1 <0>         0.2070
     32 H11         6.9329   -5.3609   -4.8966 H         1 <0>         0.4196
     33 H12         7.0573   -7.0267   -5.0762 H         1 <0>         0.4114
     34 H13         1.1247   -5.1864    1.1088 H         1 <0>         0.3970
     35 H14         0.4078   -1.9863    1.6614 H         1 <0>         0.3845
@<TRIPOS>BOND
     1    1    2 1
     2    1   26 1
     3    1   27 1
     4    1   28 1
     5    2    3 am
     6    2   29 1
     7    3    4 2
     8    3    5 1
     9    5    6 1
    10    5   13 1
    11    5    7 1
    12    7    8 1
    13    7    9 1
    14    7   25 1
    15    9   10 1
    16    9   11 1
    17    9   24 1
    18   11   12 1
    19   11   13 1
    20   11   14 1
    21   14   18 1
    22   14   15 1
    23   15   16 2
    24   15   30 1
    25   16   17 1
    26   17   22 ar
    27   17   18 ar
    28   18   19 ar
    29   19   20 ar
    30   20   21 ar
    31   20   31 1
    32   21   22 ar
    33   22   23 1
    34   23   32 1
    35   23   33 1
    36   24   34 1
    37   25   35 1
@<TRIPOS>MOLECULE
ZINC03995401
   38    40     0     0     0
SMALL
USER_CHARGES

@<TRIPOS>ATOM
      1 C1         -0.0187    1.5258    0.0104 C.3       1 <0>        -0.1678
      2 C2          0.0021   -0.0041    0.0020 C.3       1 <0>         0.1135
      3 N1          0.6878   -0.4765   -1.2033 N.am      1 <0>        -0.7272
      4 C3          0.8268   -1.7986   -1.4250 C.2       1 <0>         0.5159
      5 O1          0.3843   -2.5972   -0.6267 O.2       1 <0>        -0.5034
      6 C4          1.5322   -2.2846   -2.6649 C.3       1 <0>         0.0319
      7 H1          2.5323   -1.8560   -2.7290 H         1 <0>         0.1223
      8 C5          0.7085   -1.9402   -3.9319 C.3       1 <0>         0.0508
      9 H2         -0.3595   -2.0480   -3.7427 H         1 <0>         0.0949
     10 C6          1.2015   -3.0074   -4.9392 C.3       1 <0>         0.0831
     11 H3          0.3680   -3.3897   -5.5285 H         1 <0>         0.0899
     12 C7          1.7901   -4.1212   -4.0517 C.3       1 <0>         0.3141
     13 H4          2.8552   -4.2328   -4.2545 H         1 <0>         0.1318
     14 O2          1.5952   -3.7270   -2.6817 O.3       1 <0>        -0.3269
     15 N2          1.0980   -5.3855   -4.3143 N.pl3     1 <0>        -0.4753
     16 C8          0.0390   -5.8854   -3.6166 C.2       1 <0>         0.2664
     17 N3         -0.3260   -7.0283   -4.1208 N.2       1 <0>        -0.4588
     18 C9          0.4732   -7.3336   -5.1712 C.ar      1 <0>        -0.1081
     19 C10         1.3931   -6.2806   -5.3114 C.ar      1 <0>         0.3101
     20 N4          2.2951   -6.3363   -6.2857 N.ar      1 <0>        -0.5540
     21 C11         2.3279   -7.3607   -7.1119 C.ar      1 <0>         0.3666
     22 N5          1.4828   -8.3713   -7.0218 N.ar      1 <0>        -0.5906
     23 C12         0.5516   -8.4074   -6.0740 C.ar      1 <0>         0.5098
     24 N6         -0.3304   -9.4704   -5.9882 N.pl3     1 <0>        -0.8164
     25 O3          2.2079   -2.4612   -5.7941 O.3       1 <0>        -0.5314
     26 O4          1.0116   -0.6227   -4.3947 O.3       1 <0>        -0.5362
     27 H5          1.0039    1.9031    0.0027 H         1 <0>         0.0645
     28 H6         -0.5459    1.8868   -0.8726 H         1 <0>         0.0637
     29 H7         -0.5289    1.8773    0.9072 H         1 <0>         0.0792
     30 H8          0.5293   -0.3651    0.8851 H         1 <0>         0.0731
     31 H9         -1.0205   -0.3814    0.0098 H         1 <0>         0.0727
     32 H10         1.0417    0.1622   -1.8418 H         1 <0>         0.3979
     33 H11        -0.4280   -5.4042   -2.7700 H         1 <0>         0.2249
     34 H12         3.0737   -7.3749   -7.8929 H         1 <0>         0.2070
     35 H13        -1.0129   -9.4799   -5.2989 H         1 <0>         0.4195
     36 H14        -0.2662  -10.2059   -6.6173 H         1 <0>         0.4114
     37 H15         1.9048   -1.7181   -6.3335 H         1 <0>         0.3970
     38 H16         0.8031    0.0753   -3.7587 H         1 <0>         0.3843
@<TRIPOS>BOND
     1    1    2 1
     2    1   27 1
     3    1   28 1
     4    1   29 1
     5    2    3 1
     6    2   30 1
     7    2   31 1
     8    3    4 am
     9    3   32 1
    10    4    5 2
    11    4    6 1
    12    6    7 1
    13    6   14 1
    14    6    8 1
    15    8    9 1
    16    8   10 1
    17    8   26 1
    18   10   11 1
    19   10   12 1
    20   10   25 1
    21   12   13 1
    22   12   14 1
    23   12   15 1
    24   15   19 1
    25   15   16 1
    26   16   17 2
    27   16   33 1
    28   17   18 1
    29   18   23 ar
    30   18   19 ar
    31   19   20 ar
    32   20   21 ar
    33   21   22 ar
    34   21   34 1
    35   22   23 ar
    36   23   24 1
    37   24   35 1
    38   24   36 1
    39   25   37 1
    40   26   38 1
@<TRIPOS>MOLECULE
ZINC04475116
   39    42     0     0     0
SMALL
USER_CHARGES

@<TRIPOS>ATOM
      1 C1         -0.0158    1.3119    0.0093 C.ar      1 <0>         0.3656
      2 N1          1.0888    2.0360    0.0026 N.ar      1 <0>        -0.5910
      3 C2          2.2875    1.4625   -0.0119 C.ar      1 <0>         0.5094
      4 C3          2.3582    0.0588   -0.0202 C.ar      1 <0>        -0.1091
      5 C4          1.1547   -0.6659   -0.0126 C.ar      1 <0>         0.3133
      6 N2          0.0021   -0.0041    0.0020 N.ar      1 <0>        -0.5496
      7 N3          1.5110   -1.9908   -0.0227 N.pl3     1 <0>        -0.4727
      8 C5          2.8729   -2.0476   -0.0358 C.2       1 <0>         0.2658
      9 N4          3.3680   -0.8441   -0.0343 N.2       1 <0>        -0.4592
     10 C6          0.5956   -3.1347   -0.0195 C.3       1 <0>         0.3146
     11 H1         -0.2832   -2.9148    0.5866 H         1 <0>         0.1283
     12 C7          0.1775   -3.4928   -1.4629 C.3       1 <0>         0.0815
     13 H2          0.9267   -3.1463   -2.1747 H         1 <0>         0.0895
     14 C8          0.1056   -5.0362   -1.4608 C.3       1 <0>         0.0509
     15 H3          0.8193   -5.4528   -2.1716 H         1 <0>         0.0915
     16 C9          0.4888   -5.4280   -0.0165 C.3       1 <0>         0.0331
     17 H4         -0.4066   -5.5617    0.5906 H         1 <0>         0.1214
     18 O1          1.2661   -4.3138    0.4763 O.3       1 <0>        -0.3270
     19 C10         1.3146   -6.6886   -0.0164 C.2       1 <0>         0.5225
     20 O2          2.4681   -6.6578    0.3568 O.2       1 <0>        -0.5011
     21 N5          0.7712   -7.8502   -0.4310 N.am      1 <0>        -0.6983
     22 C11         1.5740   -9.0756   -0.4308 C.3       1 <0>         0.0751
     23 C12         1.4712   -9.9876   -1.6550 C.3       1 <0>        -0.1897
     24 C13         0.8289  -10.4083   -0.3316 C.3       1 <0>        -0.1850
     25 O3         -1.2191   -5.4762   -1.7672 O.3       1 <0>        -0.5312
     26 O4         -1.0998   -2.9297   -1.7685 O.3       1 <0>        -0.5231
     27 N6          3.4393    2.2295   -0.0193 N.pl3     1 <0>        -0.8168
     28 H5         -0.9693    1.8187    0.0257 H         1 <0>         0.2064
     29 H6          3.4551   -2.9572   -0.0459 H         1 <0>         0.2258
     30 H7         -0.1514   -7.8748   -0.7294 H         1 <0>         0.3995
     31 H8          2.5430   -9.0028    0.0629 H         1 <0>         0.1418
     32 H9          0.8062   -9.6759   -2.4605 H         1 <0>         0.0986
     33 H10         2.3727  -10.5149   -1.9669 H         1 <0>         0.1062
     34 H11         1.3079  -11.2123    0.2272 H         1 <0>         0.1076
     35 H12        -0.2586  -10.3732   -0.2664 H         1 <0>         0.1000
     36 H13        -1.3212   -6.4377   -1.7794 H         1 <0>         0.3824
     37 H14        -1.4113   -3.1237   -2.6632 H         1 <0>         0.3921
     38 H15         3.3774    3.1975   -0.0138 H         1 <0>         0.4113
     39 H16         4.3085    1.7992   -0.0299 H         1 <0>         0.4193
@<TRIPOS>BOND
     1    1    6 ar
     2    1    2 ar
     3    1   28 1
     4    2    3 ar
     5    3    4 ar
     6    3   27 1
     7    4    9 1
     8    4    5 ar
     9    5    6 ar
    10    5    7 1
    11    7    8 1
    12    7   10 1
    13    8    9 2
    14    8   29 1
    15   10   11 1
    16   10   18 1
    17   10   12 1
    18   12   13 1
    19   12   14 1
    20   12   26 1
    21   14   15 1
    22   14   16 1
    23   14   25 1
    24   16   17 1
    25   16   18 1
    26   16   19 1
    27   19   20 2
    28   19   21 am
    29   21   22 1
    30   21   30 1
    31   22   24 1
    32   22   23 1
    33   22   31 1
    34   23   24 1
    35   23   32 1
    36   23   33 1
    37   24   34 1
    38   24   35 1
    39   25   36 1
    40   26   37 1
    41   27   38 1
    42   27   39 1
@<TRIPOS>MOLECULE
ZINC05163062
   39    42     0     0     0
SMALL
USER_CHARGES
(2S,3S,4R,5S)-5-(6-aminopurin-9-yl)-N-cyclopropyl-3,4-dihydroxy-tetrahydrofuran-2-carboxamide
@<TRIPOS>ATOM
      1 C1          8.6934   -4.3827   -1.6876 C.ar      1 <0>         0.3452
      2 N1          9.9544   -4.1683   -2.0167 N.ar      1 <0>        -0.5744
      3 C2         10.3497   -2.9951   -2.4997 C.ar      1 <0>         0.4472
      4 C3          9.3949   -1.9737   -2.6422 C.ar      1 <0>        -0.0604
      5 C4          8.0674   -2.2507   -2.2751 C.ar      1 <0>         0.2954
      6 N2          7.7647   -3.4579   -1.8084 N.ar      1 <0>        -0.5402
      7 N3          7.3603   -1.0999   -2.5161 N.pl3     1 <0>        -0.4596
      8 C5          8.2374   -0.1750   -2.9990 C.2       1 <0>         0.2968
      9 N4          9.4305   -0.6896   -3.0722 N.2       1 <0>        -0.4602
     10 C6          5.9267   -0.9000   -2.2899 C.3       1 <0>         0.3174
     11 H1          5.6070   -1.4139   -1.3834 H         1 <0>         0.1293
     12 C7          5.1080   -1.3884   -3.5120 C.3       1 <0>         0.0774
     13 H2          4.8945   -2.4546   -3.4361 H         1 <0>         0.0991
     14 C8          3.8096   -0.5547   -3.3867 C.3       1 <0>         0.0523
     15 H3          3.0268   -1.1382   -2.9021 H         1 <0>         0.0930
     16 C9          4.2134    0.6431   -2.5052 C.3       1 <0>         0.0413
     17 H4          4.0310    1.5751   -3.0402 H         1 <0>         0.1434
     18 O1          5.6151    0.5079   -2.2167 O.3       1 <0>        -0.3274
     19 C10         3.4222    0.6253   -1.2228 C.2       1 <0>         0.4937
     20 O2          3.9882    0.4572   -0.1634 O.2       1 <0>        -0.5082
     21 N5          2.0857    0.7962   -1.2531 N.am      1 <0>        -0.6981
     22 C11         1.3165    0.7789   -0.0063 C.3       1 <0>         0.0734
     23 C12        -0.0187    1.5258    0.0104 C.3       1 <0>        -0.1852
     24 C13         0.0021   -0.0041    0.0020 C.3       1 <0>        -0.1899
     25 O3          3.3772   -0.1060   -4.6727 O.3       1 <0>        -0.5383
     26 O4          5.7880   -1.0927   -4.7335 O.3       1 <0>        -0.5306
     27 N6         11.6735   -2.7794   -2.8404 N.pl3     1 <0>        -0.7426
     28 H5          8.4138   -5.3533   -1.3053 H         1 <0>         0.2066
     29 H6          7.9801    0.8357   -3.2797 H         1 <0>         0.2244
     30 H7          1.6330    0.9306   -2.1004 H         1 <0>         0.4008
     31 H8          1.9064    0.7818    0.9103 H         1 <0>         0.1406
     32 H9         -0.3248    2.0300   -0.9061 H         1 <0>         0.0993
     33 H10        -0.3072    2.0201    0.9381 H         1 <0>         0.1070
     34 H11        -0.2728   -0.5162    0.9241 H         1 <0>         0.1058
     35 H12        -0.2904   -0.5063   -0.9201 H         1 <0>         0.0983
     36 H13         2.6004    0.4693   -4.6479 H         1 <0>         0.3903
     37 H14         5.2766   -1.2981   -5.5281 H         1 <0>         0.3939
     38 H15        11.7331   -2.5361   -3.8085 H         1 <0>         0.3700
     39 H16        12.3232   -3.4923   -2.7375 H         1 <0>         0.3735
@<TRIPOS>BOND
     1    1    6 ar
     2    1    2 ar
     3    1   28 1
     4    2    3 ar
     5    3    4 ar
     6    3   27 1
     7    4    9 1
     8    4    5 ar
     9    5    6 ar
    10    5    7 1
    11    7    8 1
    12    7   10 1
    13    8    9 2
    14    8   29 1
    15   10   11 1
    16   10   18 1
    17   10   12 1
    18   12   13 1
    19   12   14 1
    20   12   26 1
    21   14   15 1
    22   14   16 1
    23   14   25 1
    24   16   17 1
    25   16   18 1
    26   16   19 1
    27   19   20 2
    28   19   21 am
    29   21   22 1
    30   21   30 1
    31   22   24 1
    32   22   23 1
    33   22   31 1
    34   23   24 1
    35   23   32 1
    36   23   33 1
    37   24   34 1
    38   24   35 1
    39   25   36 1
    40   26   37 1
    41   27   38 1
    42   27   39 1
