@<TRIPOS>MOLECULE
ZINC07918428
   45    47     0     0     0
SMALL
USER_CHARGES
N-benzyl-2-(3,5-dimethyl-1-phenyl-pyrazol-4-yl)-acetamide
@<TRIPOS>ATOM
      1 C1         -0.2153    6.7623   -0.8912 C.3       1 <0>        -0.0751
      2 C2          0.5341    5.5533   -0.3933 C.2       1 <0>         0.0998
      3 C3          1.6875    5.5722    0.3985 C.2       1 <0>        -0.2147
      4 C4          2.0505    4.2905    0.6365 C.2       1 <0>         0.1059
      5 N1          1.1612    3.4878    0.0092 N.pl3     1 <0>        -0.3232
      6 N2          0.2180    4.3050   -0.6271 N.2       1 <0>        -0.2890
      7 C5          1.1770    2.0861    0.0020 C.ar      1 <0>         0.1558
      8 C6         -0.0167    1.3770    0.0096 C.ar      1 <0>        -0.1110
      9 C7          0.0021   -0.0041    0.0020 C.ar      1 <0>        -0.0994
     10 C8          1.2080   -0.6805   -0.0131 C.ar      1 <0>        -0.1225
     11 C9          2.3985    0.0230   -0.0207 C.ar      1 <0>        -0.0986
     12 C10         2.3862    1.4041   -0.0127 C.ar      1 <0>        -0.1343
     13 C11         3.2349    3.8388    1.4515 C.3       1 <0>        -0.0983
     14 C12         2.3971    6.8026    0.9021 C.3       1 <0>        -0.0587
     15 C13         1.8301    7.1966    2.2417 C.2       1 <0>         0.5107
     16 O1          0.9377    6.5426    2.7385 O.2       1 <0>        -0.5266
     17 N3          2.3148    8.2756    2.8875 N.am      1 <0>        -0.7309
     18 C14         1.7636    8.6586    4.1898 C.3       1 <0>         0.1619
     19 C15         2.4732    9.8891    4.6933 C.ar      1 <0>        -0.1107
     20 C16         3.6060    9.7622    5.4753 C.ar      1 <0>        -0.1013
     21 C17         4.2596   10.8910    5.9333 C.ar      1 <0>        -0.1215
     22 C18         3.7747   12.1464    5.6175 C.ar      1 <0>        -0.1116
     23 C19         2.6386   12.2731    4.8402 C.ar      1 <0>        -0.1212
     24 C20         1.9880   11.1445    4.3780 C.ar      1 <0>        -0.1009
     25 H1         -0.9771    7.0426   -0.1638 H         1 <0>         0.0802
     26 H2          0.4803    7.5906   -1.0265 H         1 <0>         0.0772
     27 H3         -0.6909    6.5281   -1.8436 H         1 <0>         0.0757
     28 H4         -0.9589    1.9048    0.0169 H         1 <0>         0.1330
     29 H5         -0.9261   -0.5562    0.0076 H         1 <0>         0.1327
     30 H6          1.2202   -1.7604   -0.0187 H         1 <0>         0.1300
     31 H7          3.3388   -0.5081   -0.0325 H         1 <0>         0.1334
     32 H8          3.3163    1.9530   -0.0183 H         1 <0>         0.1316
     33 H9          4.1060    3.7417    0.8035 H         1 <0>         0.0840
     34 H10         3.4414    4.5730    2.2302 H         1 <0>         0.0845
     35 H11         3.0141    2.8750    1.9101 H         1 <0>         0.0775
     36 H12         3.4614    6.5913    1.0059 H         1 <0>         0.0994
     37 H13         2.2561    7.6189    0.1936 H         1 <0>         0.1032
     38 H14         3.0285    8.7987    2.4902 H         1 <0>         0.4015
     39 H15         0.6993    8.8699    4.0859 H         1 <0>         0.0756
     40 H16         1.9046    7.8424    4.8982 H         1 <0>         0.0750
     41 H17         3.9825    8.7814    5.7254 H         1 <0>         0.1236
     42 H18         5.1470   10.7919    6.5408 H         1 <0>         0.1246
     43 H19         4.2833   13.0282    5.9784 H         1 <0>         0.1239
     44 H20         2.2596   13.2539    4.5938 H         1 <0>         0.1248
     45 H21         1.1004   11.2435    3.7707 H         1 <0>         0.1241
@<TRIPOS>BOND
     1    1    2 1
     2    1   25 1
     3    1   26 1
     4    1   27 1
     5    2    6 2
     6    2    3 1
     7    3    4 2
     8    3   14 1
     9    4    5 1
    10    4   13 1
    11    5    6 1
    12    5    7 1
    13    7   12 ar
    14    7    8 ar
    15    8    9 ar
    16    8   28 1
    17    9   10 ar
    18    9   29 1
    19   10   11 ar
    20   10   30 1
    21   11   12 ar
    22   11   31 1
    23   12   32 1
    24   13   33 1
    25   13   34 1
    26   13   35 1
    27   14   15 1
    28   14   36 1
    29   14   37 1
    30   15   16 2
    31   15   17 am
    32   17   18 1
    33   17   38 1
    34   18   19 1
    35   18   39 1
    36   18   40 1
    37   19   24 ar
    38   19   20 ar
    39   20   21 ar
    40   20   41 1
    41   21   22 ar
    42   21   42 1
    43   22   23 ar
    44   22   43 1
    45   23   24 ar
    46   23   44 1
    47   24   45 1
@<TRIPOS>MOLECULE
ZINC07920867
   51    53     0     0     0
SMALL
USER_CHARGES
N-cycloheptyl-2-(3,5-dimethyl-1-phenyl-pyrazol-4-yl)-acetamide
@<TRIPOS>ATOM
      1 C1         -0.2153    6.7623   -0.8912 C.3       1 <0>        -0.0748
      2 C2          0.5341    5.5533   -0.3933 C.2       1 <0>         0.0997
      3 C3          1.6875    5.5722    0.3985 C.2       1 <0>        -0.2135
      4 C4          2.0505    4.2905    0.6365 C.2       1 <0>         0.1054
      5 N1          1.1612    3.4878    0.0092 N.pl3     1 <0>        -0.3234
      6 N2          0.2180    4.3050   -0.6271 N.2       1 <0>        -0.2892
      7 C5          1.1770    2.0861    0.0020 C.ar      1 <0>         0.1561
      8 C6         -0.0167    1.3770    0.0096 C.ar      1 <0>        -0.1112
      9 C7          0.0021   -0.0041    0.0020 C.ar      1 <0>        -0.0993
     10 C8          1.2080   -0.6805   -0.0131 C.ar      1 <0>        -0.1226
     11 C9          2.3985    0.0230   -0.0207 C.ar      1 <0>        -0.0985
     12 C10         2.3862    1.4041   -0.0127 C.ar      1 <0>        -0.1345
     13 C11         3.2349    3.8388    1.4515 C.3       1 <0>        -0.0980
     14 C12         2.3971    6.8026    0.9021 C.3       1 <0>        -0.0603
     15 C13         1.8293    7.1973    2.2411 C.2       1 <0>         0.5112
     16 O1          0.9364    6.5437    2.7376 O.2       1 <0>        -0.5251
     17 N3          2.3138    8.2765    2.8869 N.am      1 <0>        -0.7351
     18 C14         1.7618    8.6601    4.1886 C.3       1 <0>         0.1497
     19 C15         0.4689    9.4706    3.9636 C.3       1 <0>        -0.1226
     20 C16        -0.3500    9.4242    5.2251 C.3       1 <0>        -0.1171
     21 C17        -0.0904   10.6351    6.1415 C.3       1 <0>        -0.1187
     22 C18         1.4016   11.0096    6.2284 C.3       1 <0>        -0.1206
     23 C19         2.2928    9.8022    6.3386 C.3       1 <0>        -0.1116
     24 C20         2.7675    9.4128    4.9236 C.3       1 <0>        -0.1296
     25 H1         -0.9771    7.0426   -0.1638 H         1 <0>         0.0799
     26 H2          0.4803    7.5906   -1.0265 H         1 <0>         0.0769
     27 H3         -0.6909    6.5281   -1.8436 H         1 <0>         0.0754
     28 H4         -0.9589    1.9048    0.0169 H         1 <0>         0.1329
     29 H5         -0.9261   -0.5562    0.0076 H         1 <0>         0.1327
     30 H6          1.2202   -1.7604   -0.0187 H         1 <0>         0.1299
     31 H7          3.3388   -0.5081   -0.0325 H         1 <0>         0.1334
     32 H8          3.3163    1.9530   -0.0183 H         1 <0>         0.1315
     33 H9          4.1060    3.7417    0.8035 H         1 <0>         0.0837
     34 H10         3.4414    4.5730    2.2302 H         1 <0>         0.0843
     35 H11         3.0141    2.8750    1.9101 H         1 <0>         0.0772
     36 H12         3.4612    6.5911    1.0068 H         1 <0>         0.0981
     37 H13         2.2568    7.6186    0.1932 H         1 <0>         0.1020
     38 H14         3.0280    8.7992    2.4898 H         1 <0>         0.3979
     39 H15         1.5179    7.7571    4.7481 H         1 <0>         0.0824
     40 H16         0.7212   10.5047    3.7287 H         1 <0>         0.0663
     41 H17        -0.0989    9.0336    3.1422 H         1 <0>         0.0669
     42 H18        -0.1076    8.5115    5.7696 H         1 <0>         0.0619
     43 H19        -1.4065    9.4045    4.9575 H         1 <0>         0.0608
     44 H20        -0.4533   10.4026    7.1427 H         1 <0>         0.0593
     45 H21        -0.6459   11.4912    5.7587 H         1 <0>         0.0588
     46 H22         1.5560   11.6428    7.1020 H         1 <0>         0.0601
     47 H23         1.6757   11.5698    5.3344 H         1 <0>         0.0612
     48 H24         1.7358    8.9749    6.7785 H         1 <0>         0.0686
     49 H25         3.1552   10.0358    6.9628 H         1 <0>         0.0680
     50 H26         3.6698    8.8072    5.0082 H         1 <0>         0.0664
     51 H27         3.0046   10.3205    4.3686 H         1 <0>         0.0672
@<TRIPOS>BOND
     1    1    2 1
     2    1   25 1
     3    1   26 1
     4    1   27 1
     5    2    6 2
     6    2    3 1
     7    3    4 2
     8    3   14 1
     9    4    5 1
    10    4   13 1
    11    5    6 1
    12    5    7 1
    13    7   12 ar
    14    7    8 ar
    15    8    9 ar
    16    8   28 1
    17    9   10 ar
    18    9   29 1
    19   10   11 ar
    20   10   30 1
    21   11   12 ar
    22   11   31 1
    23   12   32 1
    24   13   33 1
    25   13   34 1
    26   13   35 1
    27   14   15 1
    28   14   36 1
    29   14   37 1
    30   15   16 2
    31   15   17 am
    32   17   18 1
    33   17   38 1
    34   18   24 1
    35   18   19 1
    36   18   39 1
    37   19   20 1
    38   19   40 1
    39   19   41 1
    40   20   21 1
    41   20   42 1
    42   20   43 1
    43   21   22 1
    44   21   44 1
    45   21   45 1
    46   22   23 1
    47   22   46 1
    48   22   47 1
    49   23   24 1
    50   23   48 1
    51   23   49 1
    52   24   50 1
    53   24   51 1
@<TRIPOS>MOLECULE
ZINC01400050
   42    44     0     0     0
SMALL
USER_CHARGES
5-chloro-1-[(2,6-dichlorophenyl)methyl]-N-methyl-6-oxo-N-phenyl-pyridine-3-carboxamide
@<TRIPOS>ATOM
      1 C1         -3.6848    3.1070    0.2037 C.3       1 <0>         0.0458
      2 N1         -3.6597    1.6440    0.1297 N.am      1 <0>        -0.5466
      3 C2         -4.8553    0.9296    0.0031 C.ar      1 <0>         0.1488
      4 C3         -4.8509   -0.4563    0.0939 C.ar      1 <0>        -0.1594
      5 C4         -6.0343   -1.1583   -0.0250 C.ar      1 <0>        -0.0973
      6 C5         -7.2209   -0.4837   -0.2470 C.ar      1 <0>        -0.1426
      7 C6         -7.2278    0.8957   -0.3440 C.ar      1 <0>        -0.0966
      8 C7         -6.0488    1.6041   -0.2195 C.ar      1 <0>        -0.1572
      9 C8         -2.4843    0.9867    0.1837 C.2       1 <0>         0.5819
     10 O1         -2.4518   -0.2163    0.0078 O.2       1 <0>        -0.5073
     11 C9         -1.2381    1.7258    0.4560 C.2       1 <0>        -0.2500
     12 C10        -1.0849    3.0583    0.0011 C.2       1 <0>        -0.0076
     13 C11         0.0778    3.7145    0.2613 C.2       1 <0>        -0.1609
     14 C12         1.0978    3.0597    0.9794 C.2       1 <0>         0.5157
     15 O2          2.1423    3.6433    1.2155 O.2       1 <0>        -0.4839
     16 N2          0.9279    1.7953    1.4069 N.am      1 <0>        -0.4772
     17 C13        -0.2144    1.1266    1.1608 C.2       1 <0>         0.2192
     18 C14         2.0028    1.1360    2.1525 C.3       1 <0>         0.1233
     19 C15         2.9183    0.4240    1.1902 C.ar      1 <0>        -0.1147
     20 C16         2.6712   -0.8927    0.8457 C.ar      1 <0>        -0.0099
     21 C17         3.5085   -1.5439   -0.0427 C.ar      1 <0>        -0.1081
     22 C18         4.5987   -0.8828   -0.5765 C.ar      1 <0>        -0.0787
     23 C19         4.8494    0.4311   -0.2283 C.ar      1 <0>        -0.1101
     24 C20         4.0093    1.0853    0.6553 C.ar      1 <0>        -0.0096
     25 Cl1         4.3239    2.7357    1.0920 Cl        1 <0>        -0.0039
     26 Cl2         1.3064   -1.7256    1.5220 Cl        1 <0>        -0.0486
     27 Cl3         0.3033    5.3459   -0.2875 Cl        1 <0>        -0.0190
     28 H1         -3.7242    3.5211   -0.8038 H         1 <0>         0.0758
     29 H2         -4.5638    3.4274    0.7629 H         1 <0>         0.0855
     30 H3         -2.7851    3.4608    0.7071 H         1 <0>         0.0986
     31 H4         -3.9238   -0.9841    0.2621 H         1 <0>         0.1739
     32 H5         -6.0322   -2.2357    0.0503 H         1 <0>         0.1252
     33 H6         -8.1442   -1.0354   -0.3444 H         1 <0>         0.1218
     34 H7         -8.1562    1.4196   -0.5171 H         1 <0>         0.1256
     35 H8         -6.0549    2.6815   -0.2954 H         1 <0>         0.1258
     36 H9         -1.8776    3.5446   -0.5480 H         1 <0>         0.1631
     37 H10        -0.3285    0.1123    1.5137 H         1 <0>         0.1778
     38 H11         2.5700    1.8823    2.7088 H         1 <0>         0.1294
     39 H12         1.5734    0.4140    2.8471 H         1 <0>         0.1148
     40 H13         3.3128   -2.5703   -0.3156 H         1 <0>         0.1457
     41 H14         5.2547   -1.3930   -1.2662 H         1 <0>         0.1469
     42 H15         5.7013    0.9471   -0.6457 H         1 <0>         0.1446
@<TRIPOS>BOND
     1    1    2 1
     2    1   28 1
     3    1   29 1
     4    1   30 1
     5    2    3 1
     6    2    9 am
     7    3    8 ar
     8    3    4 ar
     9    4    5 ar
    10    4   31 1
    11    5    6 ar
    12    5   32 1
    13    6    7 ar
    14    6   33 1
    15    7    8 ar
    16    7   34 1
    17    8   35 1
    18    9   10 2
    19    9   11 1
    20   11   17 2
    21   11   12 1
    22   12   13 2
    23   12   36 1
    24   13   14 1
    25   13   27 1
    26   14   15 2
    27   14   16 am
    28   16   17 1
    29   16   18 1
    30   17   37 1
    31   18   19 1
    32   18   38 1
    33   18   39 1
    34   19   24 ar
    35   19   20 ar
    36   20   21 ar
    37   20   26 1
    38   21   22 ar
    39   21   40 1
    40   22   23 ar
    41   22   41 1
    42   23   24 ar
    43   23   42 1
    44   24   25 1
@<TRIPOS>MOLECULE
ZINC06941592
   39    40     0     0     0
SMALL
USER_CHARGES

@<TRIPOS>ATOM
      1 C1         -0.0187    1.5258    0.0104 C.3       1 <0>        -0.1687
      2 C2          0.0021   -0.0041    0.0020 C.3       1 <0>         0.1588
      3 C3          0.7421   -0.5109    1.2415 C.3       1 <0>        -0.1681
      4 N1         -1.3723   -0.5112    0.0124 N.am      1 <0>        -0.5939
      5 C4         -1.9478   -1.3653   -1.0332 C.3       1 <0>         0.1138
      6 H1         -1.2411   -2.1463   -1.3136 H         1 <0>         0.1153
      7 C5         -3.2133   -1.9899   -0.4049 C.3       1 <0>        -0.1225
      8 C6         -3.5791   -0.9439    0.6735 C.3       1 <0>        -0.1587
      9 C7         -2.2666   -0.2586    0.9837 C.2       1 <0>         0.5246
     10 O1         -2.0531    0.4217    1.9647 O.2       1 <0>        -0.5194
     11 C8         -2.3154   -0.5384   -2.2383 C.2       1 <0>         0.5019
     12 O2         -2.1188    0.6584   -2.2354 O.2       1 <0>        -0.5152
     13 N2         -2.8626   -1.1289   -3.3192 N.am      1 <0>        -0.7231
     14 C9         -3.2199   -0.3251   -4.4907 C.3       1 <0>         0.1617
     15 C10        -3.8084   -1.2183   -5.5523 C.ar      1 <0>        -0.1152
     16 C11        -3.0254   -1.6435   -6.6093 C.ar      1 <0>        -0.0565
     17 C12        -3.5638   -2.4625   -7.5833 C.ar      1 <0>        -0.1493
     18 C13        -4.8885   -2.8579   -7.5010 C.ar      1 <0>         0.1248
     19 C14        -5.6724   -2.4326   -6.4424 C.ar      1 <0>        -0.1486
     20 C15        -5.1303   -1.6169   -5.4654 C.ar      1 <0>         0.0056
     21 Cl1        -6.1108   -1.0878   -4.1341 Cl        1 <0>        -0.0433
     22 F1         -5.4155   -3.6580   -8.4535 F         1 <0>        -0.1278
     23 H2          1.0039    1.9031    0.0027 H         1 <0>         0.0627
     24 H3         -0.5459    1.8868   -0.8726 H         1 <0>         0.0708
     25 H4         -0.5289    1.8773    0.9072 H         1 <0>         0.0679
     26 H5          0.5123   -0.3556   -0.8948 H         1 <0>         0.0832
     27 H6          0.2319   -0.1594    2.1383 H         1 <0>         0.0719
     28 H7          0.7568   -1.6008    1.2356 H         1 <0>         0.0555
     29 H8          1.7647   -0.1336    1.2338 H         1 <0>         0.0690
     30 H9         -4.0096   -2.0839   -1.1432 H         1 <0>         0.0950
     31 H10        -2.9879   -2.9552    0.0485 H         1 <0>         0.0981
     32 H11        -4.3035   -0.2297    0.2820 H         1 <0>         0.1051
     33 H12        -3.9697   -1.4352    1.5646 H         1 <0>         0.1074
     34 H13        -3.0198   -2.0860   -3.3215 H         1 <0>         0.4026
     35 H14        -3.9523    0.4296   -4.2039 H         1 <0>         0.0861
     36 H15        -2.3278    0.1644   -4.8814 H         1 <0>         0.0845
     37 H16        -1.9924   -1.3351   -6.6740 H         1 <0>         0.1470
     38 H17        -2.9516   -2.7941   -8.4090 H         1 <0>         0.1469
     39 H18        -6.7056   -2.7401   -6.3775 H         1 <0>         0.1502
@<TRIPOS>BOND
     1    1    2 1
     2    1   23 1
     3    1   24 1
     4    1   25 1
     5    2    3 1
     6    2    4 1
     7    2   26 1
     8    3   27 1
     9    3   28 1
    10    3   29 1
    11    4    9 am
    12    4    5 1
    13    5    6 1
    14    5    7 1
    15    5   11 1
    16    7    8 1
    17    7   30 1
    18    7   31 1
    19    8    9 1
    20    8   32 1
    21    8   33 1
    22    9   10 2
    23   11   12 2
    24   11   13 am
    25   13   14 1
    26   13   34 1
    27   14   15 1
    28   14   35 1
    29   14   36 1
    30   15   20 ar
    31   15   16 ar
    32   16   17 ar
    33   16   37 1
    34   17   18 ar
    35   17   38 1
    36   18   19 ar
    37   18   22 1
    38   19   20 ar
    39   19   39 1
    40   20   21 1
@<TRIPOS>MOLECULE
ZINC06941598
   39    40     0     0     0
SMALL
USER_CHARGES

@<TRIPOS>ATOM
      1 C1         -0.0187    1.5258    0.0104 C.3       1 <0>        -0.1703
      2 C2          0.0021   -0.0041    0.0020 C.3       1 <0>         0.1607
      3 C3          0.7421   -0.5109    1.2415 C.3       1 <0>        -0.1600
      4 N1         -1.3723   -0.5112    0.0124 N.am      1 <0>        -0.5963
      5 C4         -1.9478   -1.3653   -1.0332 C.3       1 <0>         0.1129
      6 H1         -2.2151   -0.7670   -1.9042 H         1 <0>         0.1082
      7 C5         -3.2133   -1.9899   -0.4049 C.3       1 <0>        -0.1230
      8 C6         -3.5791   -0.9439    0.6735 C.3       1 <0>        -0.1559
      9 C7         -2.2666   -0.2586    0.9837 C.2       1 <0>         0.5197
     10 O1         -2.0531    0.4217    1.9647 O.2       1 <0>        -0.5196
     11 C8         -0.9699   -2.4438   -1.4224 C.2       1 <0>         0.5090
     12 O2          0.1140   -2.5035   -0.8815 O.2       1 <0>        -0.5161
     13 N2         -1.2997   -3.3419   -2.3716 N.am      1 <0>        -0.7208
     14 C9         -0.3490   -4.3904   -2.7500 C.3       1 <0>         0.1619
     15 C10        -0.9569   -5.2562   -3.8233 C.ar      1 <0>        -0.1157
     16 C11        -1.5199   -6.4745   -3.4917 C.ar      1 <0>        -0.0561
     17 C12        -2.0776   -7.2693   -4.4748 C.ar      1 <0>        -0.1493
     18 C13        -2.0729   -6.8456   -5.7933 C.ar      1 <0>         0.1251
     19 C14        -1.5096   -5.6255   -6.1253 C.ar      1 <0>        -0.1489
     20 C15        -0.9564   -4.8287   -5.1390 C.ar      1 <0>         0.0057
     21 Cl1        -0.2552   -3.2957   -5.5534 Cl        1 <0>        -0.0433
     22 F1         -2.6173   -7.6227   -6.7550 F         1 <0>        -0.1277
     23 H2          1.0039    1.9031    0.0027 H         1 <0>         0.0679
     24 H3         -0.5459    1.8868   -0.8726 H         1 <0>         0.0534
     25 H4         -0.5289    1.8773    0.9072 H         1 <0>         0.0704
     26 H5          0.5123   -0.3556   -0.8948 H         1 <0>         0.0924
     27 H6          0.2319   -0.1594    2.1383 H         1 <0>         0.0633
     28 H7          0.7568   -1.6008    1.2356 H         1 <0>         0.0658
     29 H8          1.7647   -0.1336    1.2338 H         1 <0>         0.0622
     30 H9         -4.0096   -2.0839   -1.1432 H         1 <0>         0.1010
     31 H10        -2.9879   -2.9552    0.0485 H         1 <0>         0.0881
     32 H11        -4.3035   -0.2297    0.2820 H         1 <0>         0.1093
     33 H12        -3.9697   -1.4352    1.5646 H         1 <0>         0.1063
     34 H13        -2.1666   -3.2942   -2.8042 H         1 <0>         0.4032
     35 H14         0.5655   -3.9327   -3.1270 H         1 <0>         0.0866
     36 H15        -0.1166   -5.0019   -1.8782 H         1 <0>         0.0854
     37 H16        -1.5234   -6.8054   -2.4636 H         1 <0>         0.1472
     38 H17        -2.5169   -8.2211   -4.2151 H         1 <0>         0.1470
     39 H18        -1.5051   -5.2943   -7.1533 H         1 <0>         0.1501
@<TRIPOS>BOND
     1    1    2 1
     2    1   23 1
     3    1   24 1
     4    1   25 1
     5    2    3 1
     6    2    4 1
     7    2   26 1
     8    3   27 1
     9    3   28 1
    10    3   29 1
    11    4    9 am
    12    4    5 1
    13    5    6 1
    14    5    7 1
    15    5   11 1
    16    7    8 1
    17    7   30 1
    18    7   31 1
    19    8    9 1
    20    8   32 1
    21    8   33 1
    22    9   10 2
    23   11   12 2
    24   11   13 am
    25   13   14 1
    26   13   34 1
    27   14   15 1
    28   14   35 1
    29   14   36 1
    30   15   20 ar
    31   15   16 ar
    32   16   17 ar
    33   16   37 1
    34   17   18 ar
    35   17   38 1
    36   18   19 ar
    37   18   22 1
    38   19   20 ar
    39   19   39 1
    40   20   21 1
@<TRIPOS>MOLECULE
ZINC04262461
   86    92     0     0     0
SMALL
USER_CHARGES
N-[2-[4-(5-isoquinolylsulfonyloxy)phenyl]-1-(4-phenylpiperazin-1-yl)carbonyl-ethyl]-N-methyl-isoquinoline-5-sulfonamide
@<TRIPOS>ATOM
      1 C1          1.8783    2.7626   -0.3062 C.3       1 <0>         0.0753
      2 N1          1.4909    1.3524   -0.2203 N.pl3     1 <0>        -0.9800
      3 C2          0.0754    0.9775   -0.2661 C.3       1 <0>         0.1307
      4 H1         -0.0210   -0.0972   -0.1118 H         1 <0>         0.1305
      5 C3         -0.6850    1.7209    0.8339 C.3       1 <0>        -0.0846
      6 C4         -0.1943    1.2612    2.1825 C.ar      1 <0>        -0.0686
      7 C5         -0.8046    0.1915    2.8111 C.ar      1 <0>        -0.0931
      8 C6         -0.3530   -0.2355    4.0449 C.ar      1 <0>        -0.1116
      9 C7          0.7065    0.4172    4.6583 C.ar      1 <0>         0.0613
     10 C8          1.3135    1.4938    4.0280 C.ar      1 <0>        -0.0849
     11 C9          0.8618    1.9133    2.7918 C.ar      1 <0>        -0.1009
     12 O1          1.1493    0.0023    5.8743 O.3       1 <0>        -0.6543
     13 S1          0.4584    0.6799    7.0489 S.o2      1 <0>         2.6749
     14 O2          1.1714    0.2954    8.2164 O.2       1 <0>        -0.9211
     15 O3          0.2744    2.0404    6.6821 O.2       1 <0>        -0.9468
     16 C10        -1.1500   -0.0267    7.1855 C.ar      1 <0>        -0.7039
     17 C11        -2.2269    0.6075    6.6428 C.ar      1 <0>         0.0378
     18 C12        -3.5050    0.0608    6.7374 C.ar      1 <0>        -0.1550
     19 C13        -3.7191   -1.1191    7.3833 C.ar      1 <0>        -0.0130
     20 C14        -2.6348   -1.7985    7.9595 C.ar      1 <0>        -0.1385
     21 C15        -1.3324   -1.2429    7.8585 C.ar      1 <0>         0.0571
     22 C16        -0.2626   -1.9443    8.4443 C.ar      1 <0>        -0.1946
     23 C17        -0.5225   -3.1203    9.0798 C.ar      1 <0>         0.1077
     24 N2         -1.7494   -3.6171    9.1595 N.ar      1 <0>        -0.4888
     25 C18        -2.7939   -3.0183    8.6372 C.ar      1 <0>         0.1597
     26 C19        -0.4984    1.3454   -1.6102 C.2       1 <0>         0.5101
     27 O4          0.0594    2.1703   -2.3024 O.2       1 <0>        -0.5208
     28 N3         -1.6315    0.7577   -2.0429 N.am      1 <0>        -0.6092
     29 C20        -2.3206   -0.2495   -1.2219 C.3       1 <0>         0.0984
     30 C21        -3.7997    0.1522   -1.1070 C.3       1 <0>         0.0428
     31 N4         -4.3562    0.3418   -2.4532 N.pl3     1 <0>        -0.4874
     32 C22        -3.6888    1.4463   -3.1550 C.3       1 <0>         0.0371
     33 C23        -2.2085    1.1022   -3.3512 C.3       1 <0>         0.1149
     34 C24        -5.7371    0.5443   -2.4000 C.ar      1 <0>         0.1077
     35 C25        -6.2960    1.6832   -2.9660 C.ar      1 <0>        -0.1699
     36 C26        -7.6623    1.8779   -2.9158 C.ar      1 <0>        -0.0928
     37 C27        -8.4728    0.9460   -2.2938 C.ar      1 <0>        -0.1432
     38 C28        -7.9191   -0.1862   -1.7247 C.ar      1 <0>        -0.0944
     39 C29        -6.5542   -0.3898   -1.7759 C.ar      1 <0>        -0.1391
     40 S2          2.6530    0.1820   -0.0714 S.o2      1 <0>         2.6863
     41 O5          3.7613    0.7904    0.5772 O.2       1 <0>        -0.9360
     42 O6          2.0045   -0.9704    0.4488 O.2       1 <0>        -0.9436
     43 C30         3.1869   -0.2320   -1.6987 C.ar      1 <0>        -0.6832
     44 C31         2.8699    0.5733   -2.7510 C.ar      1 <0>         0.0198
     45 C32         3.2838    0.2611   -4.0443 C.ar      1 <0>        -0.1480
     46 C33         4.0177   -0.8582   -4.2969 C.ar      1 <0>        -0.0221
     47 C34         4.3637   -1.7115   -3.2379 C.ar      1 <0>        -0.1346
     48 C35         3.9460   -1.3896   -1.9200 C.ar      1 <0>         0.0585
     49 C36         4.3022   -2.2643   -0.8770 C.ar      1 <0>        -0.1894
     50 C37         5.0357   -3.3721   -1.1752 C.ar      1 <0>         0.1117
     51 N5          5.4167   -3.6469   -2.4153 N.ar      1 <0>        -0.4885
     52 C38         5.1178   -2.8794   -3.4371 C.ar      1 <0>         0.1641
     53 H2          1.9208    3.1894    0.6959 H         1 <0>         0.0657
     54 H3          2.8582    2.8422   -0.7769 H         1 <0>         0.0758
     55 H4          1.1441    3.3055   -0.9014 H         1 <0>         0.1013
     56 H5         -0.5158    2.7929    0.7317 H         1 <0>         0.1005
     57 H6         -1.7509    1.5112    0.7442 H         1 <0>         0.0979
     58 H7         -1.6321   -0.3135    2.3351 H         1 <0>         0.1415
     59 H8         -0.8271   -1.0738    4.5335 H         1 <0>         0.1416
     60 H9          2.1386    2.0032    4.5034 H         1 <0>         0.1461
     61 H10         1.3342    2.7511    2.3006 H         1 <0>         0.1451
     62 H11        -2.0872    1.5468    6.1285 H         1 <0>         0.1481
     63 H12        -4.3401    0.5829    6.2943 H         1 <0>         0.1420
     64 H13        -4.7160   -1.5289    7.4513 H         1 <0>         0.1452
     65 H14         0.7445   -1.5579    8.3908 H         1 <0>         0.1686
     66 H15         0.2940   -3.6639    9.5317 H         1 <0>         0.1632
     67 H16        -3.7741   -3.4625    8.7287 H         1 <0>         0.1693
     68 H17        -2.2393   -1.2271   -1.6971 H         1 <0>         0.0892
     69 H18        -1.8708   -0.2831   -0.2296 H         1 <0>         0.0953
     70 H19        -3.8843    1.0818   -0.5442 H         1 <0>         0.0534
     71 H20        -4.3504   -0.6359   -0.5935 H         1 <0>         0.0988
     72 H21        -3.7750    2.3579   -2.5637 H         1 <0>         0.0537
     73 H22        -4.1591    1.5969   -4.1267 H         1 <0>         0.0980
     74 H23        -1.6845    1.9627   -3.7673 H         1 <0>         0.1038
     75 H24        -2.1136    0.2532   -4.0282 H         1 <0>         0.0805
     76 H25        -5.6631    2.4136   -3.4481 H         1 <0>         0.1259
     77 H26        -8.0979    2.7611   -3.3593 H         1 <0>         0.1228
     78 H27        -9.5406    1.1026   -2.2527 H         1 <0>         0.1219
     79 H28        -8.5550   -0.9123   -1.2400 H         1 <0>         0.1247
     80 H29        -6.1224   -1.2741   -1.3310 H         1 <0>         0.1250
     81 H30         2.2885    1.4673   -2.5801 H         1 <0>         0.1503
     82 H31         3.0180    0.9172   -4.8600 H         1 <0>         0.1404
     83 H32         4.3307   -1.0874   -5.3047 H         1 <0>         0.1455
     84 H33         4.0027   -2.0594    0.1402 H         1 <0>         0.1387
     85 H34         5.3154   -4.0460   -0.3790 H         1 <0>         0.1642
     86 H35         5.4509   -3.1457   -4.4293 H         1 <0>         0.1715
@<TRIPOS>BOND
     1    1    2 1
     2    1   53 1
     3    1   54 1
     4    1   55 1
     5    2    3 1
     6    2   40 1
     7    3    4 1
     8    3    5 1
     9    3   26 1
    10    5    6 1
    11    5   56 1
    12    5   57 1
    13    6   11 ar
    14    6    7 ar
    15    7    8 ar
    16    7   58 1
    17    8    9 ar
    18    8   59 1
    19    9   10 ar
    20    9   12 1
    21   10   11 ar
    22   10   60 1
    23   11   61 1
    24   12   13 1
    25   13   14 2
    26   13   15 2
    27   13   16 1
    28   16   21 ar
    29   16   17 ar
    30   17   18 ar
    31   17   62 1
    32   18   19 ar
    33   18   63 1
    34   19   20 ar
    35   19   64 1
    36   20   25 ar
    37   20   21 ar
    38   21   22 ar
    39   22   23 ar
    40   22   65 1
    41   23   24 ar
    42   23   66 1
    43   24   25 ar
    44   25   67 1
    45   26   27 2
    46   26   28 am
    47   28   33 1
    48   28   29 1
    49   29   30 1
    50   29   68 1
    51   29   69 1
    52   30   31 1
    53   30   70 1
    54   30   71 1
    55   31   32 1
    56   31   34 1
    57   32   33 1
    58   32   72 1
    59   32   73 1
    60   33   74 1
    61   33   75 1
    62   34   39 ar
    63   34   35 ar
    64   35   36 ar
    65   35   76 1
    66   36   37 ar
    67   36   77 1
    68   37   38 ar
    69   37   78 1
    70   38   39 ar
    71   38   79 1
    72   39   80 1
    73   40   41 2
    74   40   42 2
    75   40   43 1
    76   43   48 ar
    77   43   44 ar
    78   44   45 ar
    79   44   81 1
    80   45   46 ar
    81   45   82 1
    82   46   47 ar
    83   46   83 1
    84   47   52 ar
    85   47   48 ar
    86   48   49 ar
    87   49   50 ar
    88   49   84 1
    89   50   51 ar
    90   50   85 1
    91   51   52 ar
    92   52   86 1
@<TRIPOS>MOLECULE
ZINC43203068
   40    42     0     0     0
SMALL
USER_CHARGES

@<TRIPOS>ATOM
      1 C1         -1.6739   -2.4150    1.4615 C.3       1 <0>        -0.1541
      2 C2         -1.8985   -0.9171    1.2452 C.3       1 <0>         0.1922
      3 H1         -2.9677   -0.7054    1.2513 H         1 <0>         0.1007
      4 C3         -1.2270   -0.1437    2.3506 C.ar      1 <0>        -0.0835
      5 C4          0.1339    0.0935    2.3002 C.ar      1 <0>        -0.1144
      6 C5          0.7499    0.8030    3.3142 C.ar      1 <0>        -0.1170
      7 C6          0.0049    1.2755    4.3784 C.ar      1 <0>        -0.1257
      8 C7         -1.3562    1.0390    4.4284 C.ar      1 <0>        -0.1189
      9 C8         -1.9729    0.3333    3.4123 C.ar      1 <0>        -0.1082
     10 N1         -1.3292   -0.5193   -0.0447 N.pl3     1 <0>        -0.7438
     11 C9         -2.0389   -0.7343   -1.2073 C.2       1 <0>         0.6823
     12 N2         -1.4790   -0.4688   -2.3901 N.2       1 <0>        -0.6043
     13 C10        -0.1803   -0.0877   -2.4546 C.1       1 <0>         0.3822
     14 N3          0.9085    0.2318   -2.5087 N.1       1 <0>        -0.5446
     15 N4         -3.2793   -1.2054   -1.1506 N.2       1 <0>        -0.6818
     16 C11        -3.6003   -2.3421   -1.8047 C.2       1 <0>         0.3188
     17 C12        -2.6140   -3.1095   -2.4286 C.2       1 <0>        -0.2942
     18 C13        -2.9532   -4.2708   -3.0945 C.2       1 <0>        -0.0109
     19 C14        -4.2591   -4.7105   -3.1678 C.2       1 <0>        -0.2512
     20 C15        -5.2873   -3.9938   -2.5689 C.2       1 <0>         0.1821
     21 C16        -4.9885   -2.8006   -1.8705 C.2       1 <0>        -0.1531
     22 C17        -6.0244   -2.0827   -1.2631 C.2       1 <0>         0.0023
     23 C18        -7.3206   -2.5705   -1.3614 C.2       1 <0>        -0.2493
     24 C19        -7.5720   -3.7366   -2.0440 C.2       1 <0>         0.1221
     25 N5         -6.5868   -4.4274   -2.6394 N.2       1 <0>        -0.5137
     26 H2         -2.0975   -2.7111    2.4213 H         1 <0>         0.0601
     27 H3         -2.1596   -2.9744    0.6620 H         1 <0>         0.0697
     28 H4         -0.6047   -2.6267    1.4555 H         1 <0>         0.0507
     29 H5          0.7160   -0.2756    1.4687 H         1 <0>         0.1179
     30 H6          1.8132    0.9878    3.2751 H         1 <0>         0.1205
     31 H7          0.4862    1.8292    5.1710 H         1 <0>         0.1193
     32 H8         -1.9382    1.4079    5.2600 H         1 <0>         0.1215
     33 H9         -3.0369    0.1517    3.4494 H         1 <0>         0.1253
     34 H10        -0.4531   -0.1046   -0.0810 H         1 <0>         0.3908
     35 H11        -1.5821   -2.7932   -2.3903 H         1 <0>         0.1107
     36 H12        -2.1760   -4.8499   -3.5708 H         1 <0>         0.1011
     37 H13        -4.4849   -5.6238   -3.6982 H         1 <0>         0.1071
     38 H14        -5.8197   -1.1673   -0.7279 H         1 <0>         0.1324
     39 H15        -8.1346   -2.0316   -0.8994 H         1 <0>         0.1179
     40 H16        -8.5865   -4.1012   -2.1099 H         1 <0>         0.1411
@<TRIPOS>BOND
     1    1    2 1
     2    1   26 1
     3    1   27 1
     4    1   28 1
     5    2    3 1
     6    2    4 1
     7    2   10 1
     8    4    9 ar
     9    4    5 ar
    10    5    6 ar
    11    5   29 1
    12    6    7 ar
    13    6   30 1
    14    7    8 ar
    15    7   31 1
    16    8    9 ar
    17    8   32 1
    18    9   33 1
    19   10   11 1
    20   10   34 1
    21   11   12 2
    22   11   15 1
    23   12   13 1
    24   13   14 3
    25   15   16 2
    26   16   21 1
    27   16   17 1
    28   17   18 2
    29   17   35 1
    30   18   19 1
    31   18   36 1
    32   19   20 2
    33   19   37 1
    34   20   25 1
    35   20   21 1
    36   21   22 2
    37   22   23 1
    38   22   38 1
    39   23   24 2
    40   23   39 1
    41   24   25 1
    42   24   40 1
@<TRIPOS>MOLECULE
ZINC43203068
   41    43     0     0     0
SMALL
USER_CHARGES

@<TRIPOS>ATOM
      1 H1          2.5922    1.8424   -3.3370 H         1 <0>         0.1244
      2 C1          2.2418    2.7488   -2.8656 C.ar      1 <0>        -0.1149
      3 C2          0.8870    3.0159   -2.8027 C.ar      1 <0>        -0.1133
      4 C3          0.4385    4.1760   -2.1993 C.ar      1 <0>        -0.1024
      5 C4          1.3449    5.0687   -1.6585 C.ar      1 <0>        -0.0991
      6 C5          2.6997    4.8011   -1.7206 C.ar      1 <0>        -0.1177
      7 C6          3.1479    3.6389   -2.3201 C.ar      1 <0>        -0.1132
      8 C7          0.8561    6.3338   -1.0016 C.3       1 <0>         0.1950
      9 H2         -0.1928    6.2193   -0.7281 H         1 <0>         0.1114
     10 C8          1.0042    7.5043   -1.9757 C.3       1 <0>        -0.1612
     11 N1          1.6487    6.5969    0.2020 N.pl3     1 <0>        -0.6992
     12 C9          1.1151    7.3468    1.2288 C.2       1 <0>         0.6795
     13 N2         -0.0671    7.9477    1.0721 N.2       1 <0>        -0.5552
     14 C10        -0.5262    8.7976    2.0223 C.1       1 <0>         0.3716
     15 N3         -0.9112    9.5101    2.8189 N.1       1 <0>        -0.4620
     16 N4          1.7767    7.4714    2.3735 N.pl3     1 <0>        -0.6455
     17 C11         2.8672    6.7109    2.6091 C.2       1 <0>         0.1667
     18 C12         3.0174    5.4674    1.9910 C.2       1 <0>        -0.1944
     19 C13         4.1371    4.6978    2.2386 C.2       1 <0>        -0.0597
     20 C14         5.1345    5.1213    3.0929 C.2       1 <0>        -0.1146
     21 C15         5.0464    6.3476    3.7394 C.2       1 <0>         0.1533
     22 C16         3.9208    7.1739    3.5131 C.2       1 <0>        -0.1196
     23 C17         3.8361    8.4111    4.1607 C.2       1 <0>        -0.0535
     24 C18         4.8689    8.7933    5.0063 C.2       1 <0>        -0.1691
     25 C19         5.9496    7.9661    5.1975 C.2       1 <0>         0.1328
     26 N5          6.0358    6.7724    4.5894 N.2       1 <0>        -0.4680
     27 H3          0.1789    2.3185   -3.2252 H         1 <0>         0.1262
     28 H4         -0.6199    4.3850   -2.1508 H         1 <0>         0.1280
     29 H5          3.4078    5.4987   -1.2984 H         1 <0>         0.1173
     30 H6          4.2061    3.4281   -2.3654 H         1 <0>         0.1252
     31 H7          2.0531    7.6188   -2.2493 H         1 <0>         0.0576
     32 H8          0.4144    7.3086   -2.8712 H         1 <0>         0.0732
     33 H9          0.6506    8.4194   -1.5006 H         1 <0>         0.0745
     34 H10         2.5490    6.2435    0.2767 H         1 <0>         0.4214
     35 H11         2.2548    5.1062    1.3169 H         1 <0>         0.1541
     36 H12         4.2343    3.7390    1.7511 H         1 <0>         0.1401
     37 H13         5.9950    4.4908    3.2614 H         1 <0>         0.1405
     38 H14         2.9841    9.0565    4.0056 H         1 <0>         0.1320
     39 H15         4.8230    9.7446    5.5155 H         1 <0>         0.1436
     40 H16         6.7438    8.2800    5.8586 H         1 <0>         0.1669
     41 H17         1.4766    8.1087    3.0403 H         1 <0>         0.4273
@<TRIPOS>BOND
     1    1    2 1
     2    2    7 ar
     3    2    3 ar
     4    3    4 ar
     5    3   27 1
     6    4    5 ar
     7    4   28 1
     8    5    6 ar
     9    5    8 1
    10    6    7 ar
    11    6   29 1
    12    7   30 1
    13    8    9 1
    14    8   10 1
    15    8   11 1
    16   10   31 1
    17   10   32 1
    18   10   33 1
    19   11   12 1
    20   11   34 1
    21   12   13 2
    22   12   16 1
    23   13   14 1
    24   14   15 3
    25   16   17 2
    26   16   41 1
    27   17   22 1
    28   17   18 1
    29   18   19 2
    30   18   35 1
    31   19   20 1
    32   19   36 1
    33   20   21 2
    34   20   37 1
    35   21   26 1
    36   21   22 1
    37   22   23 2
    38   23   24 1
    39   23   38 1
    40   24   25 2
    41   24   39 1
    42   25   26 1
    43   25   40 1
@<TRIPOS>MOLECULE
ZINC43203068
   41    43     0     0     0
SMALL
USER_CHARGES

@<TRIPOS>ATOM
      1 H1          4.0089    1.9788   -2.8378 H         1 <0>         0.1267
      2 C1          3.6431    2.5911   -2.0269 C.ar      1 <0>        -0.1114
      3 C2          4.5108    3.0235   -1.0414 C.ar      1 <0>        -0.1134
      4 C3          4.0425    3.8073   -0.0035 C.ar      1 <0>        -0.1055
      5 C4          2.7067    4.1591    0.0488 C.ar      1 <0>        -0.1003
      6 C5          1.8392    3.7275   -0.9372 C.ar      1 <0>        -0.1114
      7 C6          2.3083    2.9473   -1.9775 C.ar      1 <0>        -0.1115
      8 C7          2.1961    5.0127    1.1808 C.3       1 <0>         0.1744
      9 H2          3.0305    5.5400    1.6433 H         1 <0>         0.0889
     10 C8          1.5143    4.1235    2.2227 C.3       1 <0>        -0.1700
     11 N1          1.2310    5.9853    0.6622 N.pl3     1 <0>        -0.7365
     12 C9          1.0295    7.1775    1.3252 C.2       1 <0>         0.6787
     13 N2          0.0788    8.0190    0.9117 N.2       1 <0>        -0.5558
     14 C10        -0.7688    7.6497   -0.0789 C.1       1 <0>         0.3705
     15 N3         -1.4794    7.3401   -0.9093 N.1       1 <0>        -0.4618
     16 N4          1.7810    7.4887    2.3750 N.pl3     1 <0>        -0.5969
     17 C11         1.6568    8.6997    2.9590 C.2       1 <0>         0.1482
     18 C12         0.4874    9.4484    2.8080 C.2       1 <0>        -0.1300
     19 C13         0.3706   10.6857    3.4100 C.2       1 <0>        -0.0692
     20 C14         1.3889   11.2213    4.1719 C.2       1 <0>        -0.1177
     21 C15         2.5775   10.5282    4.3615 C.2       1 <0>         0.1428
     22 C16         2.7420    9.2542    3.7692 C.2       1 <0>        -0.1112
     23 C17         3.9377    8.5549    3.9656 C.2       1 <0>        -0.0624
     24 C18         4.9294    9.1353    4.7451 C.2       1 <0>        -0.1716
     25 C19         4.7316   10.3729    5.3090 C.2       1 <0>         0.1212
     26 N5          3.5923   11.0570    5.1181 N.2       1 <0>        -0.4656
     27 H3          5.5544    2.7486   -1.0823 H         1 <0>         0.1279
     28 H4          4.7203    4.1445    0.7668 H         1 <0>         0.1260
     29 H5          0.7955    4.0020   -0.8962 H         1 <0>         0.1189
     30 H6          1.6313    2.6132   -2.7498 H         1 <0>         0.1272
     31 H7          0.6799    3.5963    1.7602 H         1 <0>         0.0710
     32 H8          2.2323    3.3999    2.6085 H         1 <0>         0.0800
     33 H9          1.1449    4.7410    3.0415 H         1 <0>         0.0650
     34 H10         0.7338    5.7906   -0.1476 H         1 <0>         0.4208
     35 H11        -0.3286    9.0582    2.2177 H         1 <0>         0.1928
     36 H12        -0.5416   11.2493    3.2808 H         1 <0>         0.1356
     37 H13         1.2600   12.1924    4.6265 H         1 <0>         0.1350
     38 H14         4.0864    7.5825    3.5198 H         1 <0>         0.1272
     39 H15         5.8597    8.6119    4.9093 H         1 <0>         0.1392
     40 H16         5.5139   10.8088    5.9127 H         1 <0>         0.1625
     41 H17         2.4192    6.8459    2.7223 H         1 <0>         0.4217
@<TRIPOS>BOND
     1    1    2 1
     2    2    7 ar
     3    2    3 ar
     4    3    4 ar
     5    3   27 1
     6    4    5 ar
     7    4   28 1
     8    5    6 ar
     9    5    8 1
    10    6    7 ar
    11    6   29 1
    12    7   30 1
    13    8    9 1
    14    8   10 1
    15    8   11 1
    16   10   31 1
    17   10   32 1
    18   10   33 1
    19   11   12 1
    20   11   34 1
    21   12   13 2
    22   12   16 1
    23   13   14 1
    24   14   15 3
    25   16   17 2
    26   16   41 1
    27   17   22 1
    28   17   18 1
    29   18   19 2
    30   18   35 1
    31   19   20 1
    32   19   36 1
    33   20   21 2
    34   20   37 1
    35   21   26 1
    36   21   22 1
    37   22   23 2
    38   23   24 1
    39   23   38 1
    40   24   25 2
    41   24   39 1
    42   25   26 1
    43   25   40 1
