@<TRIPOS>MOLECULE
ZINC03985980
   40    42     0     0     0
SMALL
USER_CHARGES

@<TRIPOS>ATOM
      1 C1         -0.0178    1.4608    0.0101 C.3       1 <0>         0.1059
      2 N1          0.0021   -0.0041    0.0020 N.pl3     1 <0>        -0.7119
      3 C2         -1.1869   -0.7123    0.0096 C.ar      1 <0>         0.4922
      4 C3         -1.1867   -2.1177    0.0079 C.ar      1 <0>        -0.0981
      5 C4         -2.4251   -2.7811    0.0158 C.ar      1 <0>         0.2956
      6 N2         -3.5430   -2.0622    0.0249 N.ar      1 <0>        -0.5367
      7 C5         -3.4948   -0.7469    0.0265 C.ar      1 <0>         0.3352
      8 N3         -2.3552   -0.0793    0.0241 N.ar      1 <0>        -0.5980
      9 N4         -2.1358   -4.1222    0.0117 N.pl3     1 <0>        -0.4482
     10 C6         -0.7785   -4.2474    0.0017 C.2       1 <0>         0.2947
     11 N5         -0.2235   -3.0703   -0.0005 N.2       1 <0>        -0.4895
     12 C7         -3.1074   -5.2186    0.0174 C.3       1 <0>         0.2890
     13 H1         -3.9753   -4.9524    0.6208 H         1 <0>         0.1074
     14 C8         -3.5403   -5.5612   -1.4254 C.3       1 <0>        -0.1637
     15 C9         -3.6896   -7.0991   -1.4174 C.3       1 <0>         0.1424
     16 H2         -2.9964   -7.5538   -2.1250 H         1 <0>         0.0706
     17 C10        -3.3294   -7.5037    0.0293 C.3       1 <0>         0.0725
     18 H3         -4.2315   -7.5898    0.6351 H         1 <0>         0.0889
     19 O1         -2.4980   -6.4279    0.5194 O.3       1 <0>        -0.3579
     20 C11        -2.5563   -8.8240    0.0363 C.3       1 <0>         0.1383
     21 O2         -2.3347   -9.2390    1.3856 O.3       1 <0>        -0.7616
     22 P1         -1.5491  -10.5910    1.7694 P.3       1 <0>         2.1422
     23 O3         -2.2264  -11.8094    1.0545 O.2       1 <0>        -1.1885
     24 O4         -0.0568  -10.4772    1.3060 O.3       1 <0>        -1.1976
     25 O5         -1.5995  -10.8018    3.3210 O.3       1 <0>        -1.1824
     26 O6         -5.0341   -7.4732   -1.7248 O.3       1 <0>        -0.7405
     27 P2         -5.4188   -8.4140   -2.9733 P.3       1 <0>         2.1191
     28 O7         -4.8362   -7.7978   -4.2906 O.2       1 <0>        -1.1913
     29 O8         -4.8168   -9.8438   -2.7548 O.3       1 <0>        -1.1692
     30 O9         -6.9778   -8.5160   -3.0895 O.3       1 <0>        -1.1722
     31 H4          1.0048    1.8381    0.0023 H         1 <0>         0.0650
     32 H5         -0.5450    1.8219   -0.8730 H         1 <0>         0.0545
     33 H6         -0.5280    1.8123    0.9069 H         1 <0>         0.0539
     34 H7          0.8486   -0.4776   -0.0086 H         1 <0>         0.4169
     35 H8         -4.4217   -0.1927    0.0336 H         1 <0>         0.1965
     36 H9         -0.2427   -5.1851   -0.0035 H         1 <0>         0.2309
     37 H10        -4.4925   -5.0862   -1.6614 H         1 <0>         0.0958
     38 H11        -2.7732   -5.2557   -2.1369 H         1 <0>         0.0756
     39 H12        -3.1334   -9.5857   -0.4880 H         1 <0>         0.0872
     40 H13        -1.5975   -8.6863   -0.4636 H         1 <0>         0.0368
@<TRIPOS>BOND
     1    1    2 1
     2    1   31 1
     3    1   32 1
     4    1   33 1
     5    2    3 1
     6    2   34 1
     7    3    8 ar
     8    3    4 ar
     9    4   11 1
    10    4    5 ar
    11    5    6 ar
    12    5    9 1
    13    6    7 ar
    14    7    8 ar
    15    7   35 1
    16    9   10 1
    17    9   12 1
    18   10   11 2
    19   10   36 1
    20   12   13 1
    21   12   19 1
    22   12   14 1
    23   14   15 1
    24   14   37 1
    25   14   38 1
    26   15   16 1
    27   15   17 1
    28   15   26 1
    29   17   18 1
    30   17   19 1
    31   17   20 1
    32   20   21 1
    33   20   39 1
    34   20   40 1
    35   21   22 1
    36   22   23 2
    37   22   24 1
    38   22   25 1
    39   26   27 1
    40   27   28 2
    41   27   29 1
    42   27   30 1
@<TRIPOS>MOLECULE
ZINC03985980
   41    43     0     0     0
SMALL
USER_CHARGES

@<TRIPOS>ATOM
      1 C1         -0.0178    1.4608    0.0101 C.3       1 <0>         0.1032
      2 N1          0.0021   -0.0041    0.0020 N.pl3     1 <0>        -0.7091
      3 C2          0.6007   -0.6822   -1.0453 C.ar      1 <0>         0.4954
      4 C3          0.6240   -2.0872   -1.0724 C.ar      1 <0>        -0.1004
      5 C4          1.2463   -2.7194   -2.1619 C.ar      1 <0>         0.2996
      6 N2          1.7859   -1.9726   -3.1200 N.ar      1 <0>        -0.5415
      7 C5          1.7399   -0.6589   -3.0527 C.ar      1 <0>         0.3437
      8 N3          1.1621   -0.0202   -2.0515 N.ar      1 <0>        -0.5956
      9 N4          1.1262   -4.0673   -1.9362 N.pl3     1 <0>        -0.4536
     10 C6          0.4585   -4.2265   -0.7585 C.2       1 <0>         0.2858
     11 N5          0.1647   -3.0636   -0.2533 N.2       1 <0>        -0.4841
     12 C7          1.6238   -5.1390   -2.8022 C.3       1 <0>         0.2957
     13 H1          1.5308   -4.8531   -3.8500 H         1 <0>         0.1100
     14 C8          3.0950   -5.4655   -2.4625 C.3       1 <0>        -0.1658
     15 C9          3.1867   -6.9992   -2.6265 C.3       1 <0>         0.1424
     16 H2          3.4601   -7.4687   -1.6816 H         1 <0>         0.0727
     17 C10         1.7600   -7.4177   -3.0460 C.3       1 <0>         0.0698
     18 H3          1.6876   -7.4833   -4.1316 H         1 <0>         0.0944
     19 O1          0.9034   -6.3649   -2.5497 O.3       1 <0>        -0.3651
     20 C11         1.3882   -8.7570   -2.4065 C.3       1 <0>         0.1422
     21 O2          0.1154   -9.1823   -2.8975 O.3       1 <0>        -0.7604
     22 P1         -0.5885  -10.5548   -2.4362 P.3       1 <0>         2.2071
     23 O3         -0.7015  -10.5831   -0.8956 O.2       1 <0>        -1.1123
     24 O4         -2.0594  -10.6477   -3.0841 O.3       1 <0>        -0.8975
     25 O5          0.2607  -11.7544   -2.9124 O.3       1 <0>        -1.1017
     26 O6          4.1306   -7.3383   -3.6444 O.3       1 <0>        -0.7380
     27 P2          5.4188   -8.2648   -3.3721 P.3       1 <0>         2.1140
     28 O7          6.2589   -7.6588   -2.1967 O.2       1 <0>        -1.1857
     29 O8          4.9510   -9.7100   -2.9887 O.3       1 <0>        -1.1710
     30 O9          6.3001   -8.3272   -4.6659 O.3       1 <0>        -1.1662
     31 H4          1.0048    1.8381    0.0023 H         1 <0>         0.0569
     32 H5         -0.5450    1.8219   -0.8730 H         1 <0>         0.0559
     33 H6         -0.5280    1.8123    0.9069 H         1 <0>         0.0674
     34 H7         -0.4044   -0.4986    0.7308 H         1 <0>         0.4172
     35 H8          2.1883   -0.0817   -3.8478 H         1 <0>         0.1991
     36 H9          0.2099   -5.1773   -0.3107 H         1 <0>         0.2277
     37 H10         3.7679   -4.9660   -3.1594 H         1 <0>         0.1005
     38 H11         3.3232   -5.1769   -1.4365 H         1 <0>         0.0798
     39 H12         2.1426   -9.5022   -2.6593 H         1 <0>         0.1017
     40 H13         1.3399   -8.6417   -1.3237 H         1 <0>         0.0595
     41 H14        -2.5431  -11.4512   -2.8482 H         1 <0>         0.4063
@<TRIPOS>BOND
     1    1    2 1
     2    1   31 1
     3    1   32 1
     4    1   33 1
     5    2    3 1
     6    2   34 1
     7    3    8 ar
     8    3    4 ar
     9    4   11 1
    10    4    5 ar
    11    5    6 ar
    12    5    9 1
    13    6    7 ar
    14    7    8 ar
    15    7   35 1
    16    9   10 1
    17    9   12 1
    18   10   11 2
    19   10   36 1
    20   12   13 1
    21   12   19 1
    22   12   14 1
    23   14   15 1
    24   14   37 1
    25   14   38 1
    26   15   16 1
    27   15   17 1
    28   15   26 1
    29   17   18 1
    30   17   19 1
    31   17   20 1
    32   20   21 1
    33   20   39 1
    34   20   40 1
    35   21   22 1
    36   22   23 2
    37   22   24 1
    38   22   25 1
    39   24   41 1
    40   26   27 1
    41   27   28 2
    42   27   29 1
    43   27   30 1
@<TRIPOS>MOLECULE
ZINC03985980
   41    43     0     0     0
SMALL
USER_CHARGES

@<TRIPOS>ATOM
      1 C1         -0.0178    1.4608    0.0101 C.3       1 <0>         0.1029
      2 N1          0.0021   -0.0041    0.0020 N.pl3     1 <0>        -0.7082
      3 C2          0.6205   -0.6934    1.0304 C.ar      1 <0>         0.4963
      4 C3          0.6543   -2.0984    1.0360 C.ar      1 <0>        -0.0987
      5 C4          1.2966   -2.7422    2.1069 C.ar      1 <0>         0.2972
      6 N2          1.8451   -2.0058    3.0680 N.ar      1 <0>        -0.5447
      7 C5          1.7894   -0.6917    3.0208 C.ar      1 <0>         0.3423
      8 N3          1.2011   -0.0421    2.0327 N.ar      1 <0>        -0.5959
      9 N4          1.1822   -4.0874    1.8631 N.pl3     1 <0>        -0.4558
     10 C6          0.4984   -4.2339    0.6930 C.2       1 <0>         0.2913
     11 N5          0.1896   -3.0658    0.2094 N.2       1 <0>        -0.4822
     12 C7          1.7002   -5.1682    2.7055 C.3       1 <0>         0.2922
     13 H1          2.6497   -4.8765    3.1545 H         1 <0>         0.1098
     14 C8          0.6759   -5.5328    3.8029 C.3       1 <0>        -0.1668
     15 C9          0.7961   -7.0677    3.9336 C.3       1 <0>         0.1458
     16 H2         -0.1516   -7.5472    3.6886 H         1 <0>         0.0872
     17 C10         1.8788   -7.4488    2.8998 C.3       1 <0>         0.0722
     18 H3          2.8562   -7.5087    3.3785 H         1 <0>         0.0928
     19 O1          1.8606   -6.3766    1.9309 O.3       1 <0>        -0.3476
     20 C11         1.5316   -8.7806    2.2314 C.3       1 <0>         0.1354
     21 O2          2.5996   -9.1720    1.3663 O.3       1 <0>        -0.7570
     22 P1          2.5732  -10.5281    0.4988 P.3       1 <0>         2.1345
     23 O3          2.3234  -11.7499    1.4471 O.2       1 <0>        -1.1870
     24 O4          1.4234  -10.4469   -0.5623 O.3       1 <0>        -1.1912
     25 O5          3.9471  -10.7070   -0.2326 O.3       1 <0>        -1.1752
     26 O6          1.2112   -7.4268    5.2530 O.3       1 <0>        -0.7435
     27 P2          0.3460   -8.3864    6.2137 P.3       1 <0>         2.1928
     28 O7          0.0578   -9.7187    5.4865 O.2       1 <0>        -1.0871
     29 O8          1.1722   -8.6797    7.5640 O.3       1 <0>        -0.8948
     30 O9         -0.9889   -7.6932    6.5669 O.3       1 <0>        -1.1061
     31 H4          1.0048    1.8381    0.0023 H         1 <0>         0.0563
     32 H5         -0.5450    1.8219   -0.8730 H         1 <0>         0.0682
     33 H6         -0.5280    1.8123    0.9069 H         1 <0>         0.0565
     34 H7         -0.4183   -0.4908   -0.7241 H         1 <0>         0.4182
     35 H8          2.2449   -0.1231    3.8181 H         1 <0>         0.1981
     36 H9          0.2496   -5.1798    0.2348 H         1 <0>         0.2315
     37 H10         0.9355   -5.0479    4.7439 H         1 <0>         0.1005
     38 H11        -0.3312   -5.2535    3.4932 H         1 <0>         0.0868
     39 H12         1.3852   -9.5436    2.9959 H         1 <0>         0.0804
     40 H13         0.6162   -8.6679    1.6505 H         1 <0>         0.0430
     41 H14         0.7102   -9.2529    8.1911 H         1 <0>         0.4099
@<TRIPOS>BOND
     1    1    2 1
     2    1   31 1
     3    1   32 1
     4    1   33 1
     5    2    3 1
     6    2   34 1
     7    3    8 ar
     8    3    4 ar
     9    4   11 1
    10    4    5 ar
    11    5    6 ar
    12    5    9 1
    13    6    7 ar
    14    7    8 ar
    15    7   35 1
    16    9   10 1
    17    9   12 1
    18   10   11 2
    19   10   36 1
    20   12   13 1
    21   12   19 1
    22   12   14 1
    23   14   15 1
    24   14   37 1
    25   14   38 1
    26   15   16 1
    27   15   17 1
    28   15   26 1
    29   17   18 1
    30   17   19 1
    31   17   20 1
    32   20   21 1
    33   20   39 1
    34   20   40 1
    35   21   22 1
    36   22   23 2
    37   22   24 1
    38   22   25 1
    39   26   27 1
    40   27   28 2
    41   27   29 1
    42   27   30 1
    43   29   41 1
