@<TRIPOS>MOLECULE
ZINC43203068
   40    42     0     0     0
SMALL
USER_CHARGES

@<TRIPOS>ATOM
      1 C1         -1.6739   -2.4150    1.4615 C.3       1 <0>        -0.1541
      2 C2         -1.8985   -0.9171    1.2452 C.3       1 <0>         0.1922
      3 H1         -2.9677   -0.7054    1.2513 H         1 <0>         0.1007
      4 C3         -1.2270   -0.1437    2.3506 C.ar      1 <0>        -0.0835
      5 C4          0.1339    0.0935    2.3002 C.ar      1 <0>        -0.1144
      6 C5          0.7499    0.8030    3.3142 C.ar      1 <0>        -0.1170
      7 C6          0.0049    1.2755    4.3784 C.ar      1 <0>        -0.1257
      8 C7         -1.3562    1.0390    4.4284 C.ar      1 <0>        -0.1189
      9 C8         -1.9729    0.3333    3.4123 C.ar      1 <0>        -0.1082
     10 N1         -1.3292   -0.5193   -0.0447 N.pl3     1 <0>        -0.7438
     11 C9         -2.0389   -0.7343   -1.2073 C.2       1 <0>         0.6823
     12 N2         -1.4790   -0.4688   -2.3901 N.2       1 <0>        -0.6043
     13 C10        -0.1803   -0.0877   -2.4546 C.1       1 <0>         0.3822
     14 N3          0.9085    0.2318   -2.5087 N.1       1 <0>        -0.5446
     15 N4         -3.2793   -1.2054   -1.1506 N.2       1 <0>        -0.6818
     16 C11        -3.6003   -2.3421   -1.8047 C.2       1 <0>         0.3188
     17 C12        -2.6140   -3.1095   -2.4286 C.2       1 <0>        -0.2942
     18 C13        -2.9532   -4.2708   -3.0945 C.2       1 <0>        -0.0109
     19 C14        -4.2591   -4.7105   -3.1678 C.2       1 <0>        -0.2512
     20 C15        -5.2873   -3.9938   -2.5689 C.2       1 <0>         0.1821
     21 C16        -4.9885   -2.8006   -1.8705 C.2       1 <0>        -0.1531
     22 C17        -6.0244   -2.0827   -1.2631 C.2       1 <0>         0.0023
     23 C18        -7.3206   -2.5705   -1.3614 C.2       1 <0>        -0.2493
     24 C19        -7.5720   -3.7366   -2.0440 C.2       1 <0>         0.1221
     25 N5         -6.5868   -4.4274   -2.6394 N.2       1 <0>        -0.5137
     26 H2         -2.0975   -2.7111    2.4213 H         1 <0>         0.0601
     27 H3         -2.1596   -2.9744    0.6620 H         1 <0>         0.0697
     28 H4         -0.6047   -2.6267    1.4555 H         1 <0>         0.0507
     29 H5          0.7160   -0.2756    1.4687 H         1 <0>         0.1179
     30 H6          1.8132    0.9878    3.2751 H         1 <0>         0.1205
     31 H7          0.4862    1.8292    5.1710 H         1 <0>         0.1193
     32 H8         -1.9382    1.4079    5.2600 H         1 <0>         0.1215
     33 H9         -3.0369    0.1517    3.4494 H         1 <0>         0.1253
     34 H10        -0.4531   -0.1046   -0.0810 H         1 <0>         0.3908
     35 H11        -1.5821   -2.7932   -2.3903 H         1 <0>         0.1107
     36 H12        -2.1760   -4.8499   -3.5708 H         1 <0>         0.1011
     37 H13        -4.4849   -5.6238   -3.6982 H         1 <0>         0.1071
     38 H14        -5.8197   -1.1673   -0.7279 H         1 <0>         0.1324
     39 H15        -8.1346   -2.0316   -0.8994 H         1 <0>         0.1179
     40 H16        -8.5865   -4.1012   -2.1099 H         1 <0>         0.1411
@<TRIPOS>BOND
     1    1    2 1
     2    1   26 1
     3    1   27 1
     4    1   28 1
     5    2    3 1
     6    2    4 1
     7    2   10 1
     8    4    9 ar
     9    4    5 ar
    10    5    6 ar
    11    5   29 1
    12    6    7 ar
    13    6   30 1
    14    7    8 ar
    15    7   31 1
    16    8    9 ar
    17    8   32 1
    18    9   33 1
    19   10   11 1
    20   10   34 1
    21   11   12 2
    22   11   15 1
    23   12   13 1
    24   13   14 3
    25   15   16 2
    26   16   21 1
    27   16   17 1
    28   17   18 2
    29   17   35 1
    30   18   19 1
    31   18   36 1
    32   19   20 2
    33   19   37 1
    34   20   25 1
    35   20   21 1
    36   21   22 2
    37   22   23 1
    38   22   38 1
    39   23   24 2
    40   23   39 1
    41   24   25 1
    42   24   40 1
@<TRIPOS>MOLECULE
ZINC43203068
   41    43     0     0     0
SMALL
USER_CHARGES

@<TRIPOS>ATOM
      1 H1          2.5922    1.8424   -3.3370 H         1 <0>         0.1244
      2 C1          2.2418    2.7488   -2.8656 C.ar      1 <0>        -0.1149
      3 C2          0.8870    3.0159   -2.8027 C.ar      1 <0>        -0.1133
      4 C3          0.4385    4.1760   -2.1993 C.ar      1 <0>        -0.1024
      5 C4          1.3449    5.0687   -1.6585 C.ar      1 <0>        -0.0991
      6 C5          2.6997    4.8011   -1.7206 C.ar      1 <0>        -0.1177
      7 C6          3.1479    3.6389   -2.3201 C.ar      1 <0>        -0.1132
      8 C7          0.8561    6.3338   -1.0016 C.3       1 <0>         0.1950
      9 H2         -0.1928    6.2193   -0.7281 H         1 <0>         0.1114
     10 C8          1.0042    7.5043   -1.9757 C.3       1 <0>        -0.1612
     11 N1          1.6487    6.5969    0.2020 N.pl3     1 <0>        -0.6992
     12 C9          1.1151    7.3468    1.2288 C.2       1 <0>         0.6795
     13 N2         -0.0671    7.9477    1.0721 N.2       1 <0>        -0.5552
     14 C10        -0.5262    8.7976    2.0223 C.1       1 <0>         0.3716
     15 N3         -0.9112    9.5101    2.8189 N.1       1 <0>        -0.4620
     16 N4          1.7767    7.4714    2.3735 N.pl3     1 <0>        -0.6455
     17 C11         2.8672    6.7109    2.6091 C.2       1 <0>         0.1667
     18 C12         3.0174    5.4674    1.9910 C.2       1 <0>        -0.1944
     19 C13         4.1371    4.6978    2.2386 C.2       1 <0>        -0.0597
     20 C14         5.1345    5.1213    3.0929 C.2       1 <0>        -0.1146
     21 C15         5.0464    6.3476    3.7394 C.2       1 <0>         0.1533
     22 C16         3.9208    7.1739    3.5131 C.2       1 <0>        -0.1196
     23 C17         3.8361    8.4111    4.1607 C.2       1 <0>        -0.0535
     24 C18         4.8689    8.7933    5.0063 C.2       1 <0>        -0.1691
     25 C19         5.9496    7.9661    5.1975 C.2       1 <0>         0.1328
     26 N5          6.0358    6.7724    4.5894 N.2       1 <0>        -0.4680
     27 H3          0.1789    2.3185   -3.2252 H         1 <0>         0.1262
     28 H4         -0.6199    4.3850   -2.1508 H         1 <0>         0.1280
     29 H5          3.4078    5.4987   -1.2984 H         1 <0>         0.1173
     30 H6          4.2061    3.4281   -2.3654 H         1 <0>         0.1252
     31 H7          2.0531    7.6188   -2.2493 H         1 <0>         0.0576
     32 H8          0.4144    7.3086   -2.8712 H         1 <0>         0.0732
     33 H9          0.6506    8.4194   -1.5006 H         1 <0>         0.0745
     34 H10         2.5490    6.2435    0.2767 H         1 <0>         0.4214
     35 H11         2.2548    5.1062    1.3169 H         1 <0>         0.1541
     36 H12         4.2343    3.7390    1.7511 H         1 <0>         0.1401
     37 H13         5.9950    4.4908    3.2614 H         1 <0>         0.1405
     38 H14         2.9841    9.0565    4.0056 H         1 <0>         0.1320
     39 H15         4.8230    9.7446    5.5155 H         1 <0>         0.1436
     40 H16         6.7438    8.2800    5.8586 H         1 <0>         0.1669
     41 H17         1.4766    8.1087    3.0403 H         1 <0>         0.4273
@<TRIPOS>BOND
     1    1    2 1
     2    2    7 ar
     3    2    3 ar
     4    3    4 ar
     5    3   27 1
     6    4    5 ar
     7    4   28 1
     8    5    6 ar
     9    5    8 1
    10    6    7 ar
    11    6   29 1
    12    7   30 1
    13    8    9 1
    14    8   10 1
    15    8   11 1
    16   10   31 1
    17   10   32 1
    18   10   33 1
    19   11   12 1
    20   11   34 1
    21   12   13 2
    22   12   16 1
    23   13   14 1
    24   14   15 3
    25   16   17 2
    26   16   41 1
    27   17   22 1
    28   17   18 1
    29   18   19 2
    30   18   35 1
    31   19   20 1
    32   19   36 1
    33   20   21 2
    34   20   37 1
    35   21   26 1
    36   21   22 1
    37   22   23 2
    38   23   24 1
    39   23   38 1
    40   24   25 2
    41   24   39 1
    42   25   26 1
    43   25   40 1
@<TRIPOS>MOLECULE
ZINC43203068
   41    43     0     0     0
SMALL
USER_CHARGES

@<TRIPOS>ATOM
      1 H1          4.0089    1.9788   -2.8378 H         1 <0>         0.1267
      2 C1          3.6431    2.5911   -2.0269 C.ar      1 <0>        -0.1114
      3 C2          4.5108    3.0235   -1.0414 C.ar      1 <0>        -0.1134
      4 C3          4.0425    3.8073   -0.0035 C.ar      1 <0>        -0.1055
      5 C4          2.7067    4.1591    0.0488 C.ar      1 <0>        -0.1003
      6 C5          1.8392    3.7275   -0.9372 C.ar      1 <0>        -0.1114
      7 C6          2.3083    2.9473   -1.9775 C.ar      1 <0>        -0.1115
      8 C7          2.1961    5.0127    1.1808 C.3       1 <0>         0.1744
      9 H2          3.0305    5.5400    1.6433 H         1 <0>         0.0889
     10 C8          1.5143    4.1235    2.2227 C.3       1 <0>        -0.1700
     11 N1          1.2310    5.9853    0.6622 N.pl3     1 <0>        -0.7365
     12 C9          1.0295    7.1775    1.3252 C.2       1 <0>         0.6787
     13 N2          0.0788    8.0190    0.9117 N.2       1 <0>        -0.5558
     14 C10        -0.7688    7.6497   -0.0789 C.1       1 <0>         0.3705
     15 N3         -1.4794    7.3401   -0.9093 N.1       1 <0>        -0.4618
     16 N4          1.7810    7.4887    2.3750 N.pl3     1 <0>        -0.5969
     17 C11         1.6568    8.6997    2.9590 C.2       1 <0>         0.1482
     18 C12         0.4874    9.4484    2.8080 C.2       1 <0>        -0.1300
     19 C13         0.3706   10.6857    3.4100 C.2       1 <0>        -0.0692
     20 C14         1.3889   11.2213    4.1719 C.2       1 <0>        -0.1177
     21 C15         2.5775   10.5282    4.3615 C.2       1 <0>         0.1428
     22 C16         2.7420    9.2542    3.7692 C.2       1 <0>        -0.1112
     23 C17         3.9377    8.5549    3.9656 C.2       1 <0>        -0.0624
     24 C18         4.9294    9.1353    4.7451 C.2       1 <0>        -0.1716
     25 C19         4.7316   10.3729    5.3090 C.2       1 <0>         0.1212
     26 N5          3.5923   11.0570    5.1181 N.2       1 <0>        -0.4656
     27 H3          5.5544    2.7486   -1.0823 H         1 <0>         0.1279
     28 H4          4.7203    4.1445    0.7668 H         1 <0>         0.1260
     29 H5          0.7955    4.0020   -0.8962 H         1 <0>         0.1189
     30 H6          1.6313    2.6132   -2.7498 H         1 <0>         0.1272
     31 H7          0.6799    3.5963    1.7602 H         1 <0>         0.0710
     32 H8          2.2323    3.3999    2.6085 H         1 <0>         0.0800
     33 H9          1.1449    4.7410    3.0415 H         1 <0>         0.0650
     34 H10         0.7338    5.7906   -0.1476 H         1 <0>         0.4208
     35 H11        -0.3286    9.0582    2.2177 H         1 <0>         0.1928
     36 H12        -0.5416   11.2493    3.2808 H         1 <0>         0.1356
     37 H13         1.2600   12.1924    4.6265 H         1 <0>         0.1350
     38 H14         4.0864    7.5825    3.5198 H         1 <0>         0.1272
     39 H15         5.8597    8.6119    4.9093 H         1 <0>         0.1392
     40 H16         5.5139   10.8088    5.9127 H         1 <0>         0.1625
     41 H17         2.4192    6.8459    2.7223 H         1 <0>         0.4217
@<TRIPOS>BOND
     1    1    2 1
     2    2    7 ar
     3    2    3 ar
     4    3    4 ar
     5    3   27 1
     6    4    5 ar
     7    4   28 1
     8    5    6 ar
     9    5    8 1
    10    6    7 ar
    11    6   29 1
    12    7   30 1
    13    8    9 1
    14    8   10 1
    15    8   11 1
    16   10   31 1
    17   10   32 1
    18   10   33 1
    19   11   12 1
    20   11   34 1
    21   12   13 2
    22   12   16 1
    23   13   14 1
    24   14   15 3
    25   16   17 2
    26   16   41 1
    27   17   22 1
    28   17   18 1
    29   18   19 2
    30   18   35 1
    31   19   20 1
    32   19   36 1
    33   20   21 2
    34   20   37 1
    35   21   26 1
    36   21   22 1
    37   22   23 2
    38   23   24 1
    39   23   38 1
    40   24   25 2
    41   24   39 1
    42   25   26 1
    43   25   40 1
