@<TRIPOS>MOLECULE
ZINC04272052
   48    51     0     0     0
SMALL
USER_CHARGES

@<TRIPOS>ATOM
      1 C1         -0.0260   -7.5914   -2.6230 C.2       1 <0>        -0.0235
      2 C2          0.9045   -6.9755   -1.9368 C.2       1 <0>        -0.7185
      3 S1          2.4274   -6.5417   -2.7096 S.o2      1 <0>         2.5684
      4 O1          2.3306   -6.9634   -4.0631 O.2       1 <0>        -0.9454
      5 O2          3.4631   -6.9877   -1.8449 O.2       1 <0>        -0.9395
      6 C3          2.5158   -4.7821   -2.7354 C.ar      1 <0>        -0.6112
      7 C4          2.0052   -4.0806   -3.8126 C.ar      1 <0>        -0.0832
      8 C5          2.0725   -2.6997   -3.8370 C.ar      1 <0>        -0.0901
      9 C6          2.6455   -2.0158   -2.7827 C.ar      1 <0>        -0.1374
     10 C7          3.1636   -2.7174   -1.7015 C.ar      1 <0>         0.2144
     11 C8          3.0943   -4.1052   -1.6802 C.ar      1 <0>        -0.0876
     12 N1          3.7477   -2.0294   -0.6355 N.pl3     1 <0>        -0.6783
     13 C9          3.6941   -0.6446   -0.5917 C.ar      1 <0>         0.1100
     14 C10         4.8189    0.1128   -0.9352 C.ar      1 <0>         0.0421
     15 C11         4.7789    1.4753   -0.8961 C.ar      1 <0>        -0.7012
     16 C12         3.6124    2.1445   -0.5112 C.ar      1 <0>         0.3498
     17 C13         2.4749    1.4112   -0.1630 C.ar      1 <0>        -0.2354
     18 C14         2.5160   -0.0001   -0.2040 C.ar      1 <0>        -0.0581
     19 C15         1.3194   -0.7758    0.1608 C.2       1 <0>         0.4324
     20 O3          1.4010   -1.9711    0.3703 O.2       1 <0>        -0.4124
     21 C16         0.0165   -0.0839    0.2690 C.ar      1 <0>        -0.1159
     22 C17        -1.1684   -0.8107    0.3288 C.ar      1 <0>        -0.0710
     23 C18        -2.3779   -0.1466    0.4291 C.ar      1 <0>        -0.1043
     24 C19        -2.4180    1.2357    0.4710 C.ar      1 <0>        -0.1022
     25 C20        -1.2496    1.9738    0.4081 C.ar      1 <0>        -0.0720
     26 C21        -0.0244    1.3219    0.3109 C.ar      1 <0>        -0.1098
     27 C22         1.2359    2.0934    0.2450 C.2       1 <0>         0.4473
     28 O4          1.2482    3.2771    0.5240 O.2       1 <0>        -0.4533
     29 N2          3.5850    3.5299   -0.4749 N.pl3     1 <0>        -0.8361
     30 S2          6.2117    2.4025   -1.3344 S.o2      1 <0>         2.6886
     31 O5          6.2032    2.5178   -2.7506 O.2       1 <0>        -1.0457
     32 O6          6.2395    3.5360   -0.4779 O.2       1 <0>        -1.0427
     33 H1          0.1402   -7.8333   -3.6623 H         1 <0>         0.1267
     34 H2         -0.9595   -7.8573   -2.1493 H         1 <0>         0.1167
     35 H3          0.7382   -6.7337   -0.8975 H         1 <0>         0.1624
     36 H4          1.5526   -4.6126   -4.6363 H         1 <0>         0.1367
     37 H5          1.6728   -2.1550   -4.6797 H         1 <0>         0.1318
     38 H6          2.6937   -0.9370   -2.8004 H         1 <0>         0.1291
     39 H7          3.4922   -4.6536   -0.8392 H         1 <0>         0.1413
     40 H8          4.1909   -2.5203    0.0740 H         1 <0>         0.4139
     41 H9          5.7284   -0.3867   -1.2349 H         1 <0>         0.1523
     42 H10        -1.1440   -1.8899    0.2973 H         1 <0>         0.1399
     43 H11        -3.2973   -0.7113    0.4755 H         1 <0>         0.1348
     44 H12        -3.3686    1.7423    0.5497 H         1 <0>         0.1354
     45 H13        -1.2880    3.0526    0.4414 H         1 <0>         0.1422
     46 H14         2.9552    3.9876    0.1038 H         1 <0>         0.4165
     47 H15         4.1956    4.0418   -1.0281 H         1 <0>         0.4075
     48 O7          7.4236    1.5552   -0.9741 O.3       1 <0>        -1.0654
@<TRIPOS>BOND
     1    1    2 2
     2    1   33 1
     3    1   34 1
     4    2    3 1
     5    2   35 1
     6    3    4 2
     7    3    5 2
     8    3    6 1
     9    6   11 ar
    10    6    7 ar
    11    7    8 ar
    12    7   36 1
    13    8    9 ar
    14    8   37 1
    15    9   10 ar
    16    9   38 1
    17   10   11 ar
    18   10   12 1
    19   11   39 1
    20   12   13 1
    21   12   40 1
    22   13   18 ar
    23   13   14 ar
    24   14   15 ar
    25   14   41 1
    26   15   16 ar
    27   15   30 1
    28   16   17 ar
    29   16   29 1
    30   17   27 1
    31   17   18 ar
    32   18   19 1
    33   19   20 2
    34   19   21 1
    35   21   26 ar
    36   21   22 ar
    37   22   23 ar
    38   22   42 1
    39   23   24 ar
    40   23   43 1
    41   24   25 ar
    42   24   44 1
    43   25   26 ar
    44   25   45 1
    45   26   27 1
    46   27   28 2
    47   29   46 1
    48   29   47 1
    49   30   31 2
    50   30   32 2
    51   30   48 1
@<TRIPOS>MOLECULE
ZINC13555417
   25    26     0     0     0
SMALL
USER_CHARGES

@<TRIPOS>ATOM
      1 C1         -0.0127    1.0858    0.0080 C.3       1 <0>        -0.1345
      2 C2         -0.7416    1.5850   -1.2129 C.ar      1 <0>         0.1316
      3 C3         -2.1118    1.7952   -1.1571 C.ar      1 <0>         0.1303
      4 C4         -2.7723    2.2559   -2.2876 C.ar      1 <0>        -0.0171
      5 C5         -2.0258    2.4908   -3.4428 C.ar      1 <0>        -0.1122
      6 C6         -0.6652    2.2556   -3.4162 C.ar      1 <0>         0.1412
      7 N1         -0.0703    1.8230   -2.3223 N.ar      1 <0>        -0.4312
      8 C7         -2.6942    2.9924   -4.6880 C.3       1 <0>         0.1333
      9 O1         -3.1401    4.3386   -4.4990 O.3       1 <0>        -0.7074
     10 P1         -4.5591    4.6609   -3.7883 P.3       1 <0>         2.1266
     11 O2         -4.7152    6.1834   -3.5768 O.2       1 <0>        -1.0173
     12 O3         -4.5215    3.8998   -2.3594 O.3       1 <0>        -0.7056
     13 C8         -4.2514    2.4966   -2.2742 C.3       1 <0>         0.1178
     14 O4         -5.7217    4.1219   -4.6514 O.3       1 <0>        -1.0540
     15 O5         -2.7988    1.5535   -0.0096 O.3       1 <0>        -0.4580
     16 H1          0.0021   -0.0041    0.0020 H         1 <0>         0.1171
     17 H2          1.0099    1.4631    0.0003 H         1 <0>         0.0985
     18 H3         -0.5229    1.4373    0.9048 H         1 <0>         0.1164
     19 H4         -0.0783    2.4328   -4.3053 H         1 <0>         0.2192
     20 H5         -1.9866    2.9590   -5.5165 H         1 <0>         0.1196
     21 H6         -3.5494    2.3576   -4.9198 H         1 <0>         0.0921
     22 H7         -4.7081    1.9880   -3.1232 H         1 <0>         0.0960
     23 H8         -4.6733    2.1028   -1.3496 H         1 <0>         0.1252
     24 H9          0.8878    1.6720   -2.3351 H         1 <0>         0.4515
     25 H10        -2.8592    2.3168    0.5809 H         1 <0>         0.4210
@<TRIPOS>BOND
     1    1   16 1
     2    1   17 1
     3    1   18 1
     4    1    2 1
     5    2    3 ar
     6    2    7 ar
     7    3   15 1
     8    3    4 ar
     9    4    5 ar
    10    4   13 1
    11    5    6 ar
    12    5    8 1
    13    6    7 ar
    14    6   19 1
    15    7   24 1
    16    8    9 1
    17    8   20 1
    18    8   21 1
    19    9   10 1
    20   10   11 2
    21   10   12 1
    22   10   14 1
    23   12   13 1
    24   13   22 1
    25   13   23 1
    26   15   25 1
@<TRIPOS>MOLECULE
ZINC13555417
   24    25     0     0     0
SMALL
USER_CHARGES

@<TRIPOS>ATOM
      1 C1         -0.0127    1.0858    0.0080 C.3       1 <0>        -0.0950
      2 C2         -0.7416    1.5850   -1.2129 C.ar      1 <0>         0.1051
      3 C3         -2.1118    1.7952   -1.1571 C.ar      1 <0>         0.0754
      4 C4         -2.7723    2.2559   -2.2876 C.ar      1 <0>        -0.0942
      5 C5         -2.0258    2.4908   -3.4428 C.ar      1 <0>        -0.1572
      6 C6         -0.6652    2.2556   -3.4162 C.ar      1 <0>         0.1149
      7 N1         -0.0703    1.8230   -2.3223 N.ar      1 <0>        -0.4684
      8 C7         -2.6942    2.9924   -4.6880 C.3       1 <0>         0.1447
      9 O1         -3.1401    4.3386   -4.4990 O.3       1 <0>        -0.7214
     10 P1         -4.5591    4.6609   -3.7883 P.3       1 <0>         2.1556
     11 O2         -4.7152    6.1834   -3.5768 O.2       1 <0>        -1.0438
     12 O3         -4.5215    3.8998   -2.3594 O.3       1 <0>        -0.7213
     13 C8         -4.2514    2.4966   -2.2742 C.3       1 <0>         0.1389
     14 O4         -5.7217    4.1219   -4.6514 O.3       1 <0>        -1.0789
     15 O5         -2.7988    1.5535   -0.0096 O.3       1 <0>        -0.4859
     16 H1          0.0021   -0.0041    0.0020 H         1 <0>         0.0789
     17 H2          1.0099    1.4631    0.0003 H         1 <0>         0.0765
     18 H3         -0.5229    1.4373    0.9048 H         1 <0>         0.0754
     19 H4         -0.0783    2.4328   -4.3053 H         1 <0>         0.1650
     20 H5         -1.9866    2.9590   -5.5165 H         1 <0>         0.1003
     21 H6         -3.5494    2.3576   -4.9198 H         1 <0>         0.0666
     22 H7         -4.7081    1.9880   -3.1232 H         1 <0>         0.0700
     23 H8         -4.6733    2.1028   -1.3496 H         1 <0>         0.1044
     24 H9         -2.8592    2.3168    0.5809 H         1 <0>         0.3945
@<TRIPOS>BOND
     1    1   16 1
     2    1   17 1
     3    1   18 1
     4    1    2 1
     5    2    3 ar
     6    2    7 ar
     7    3   15 1
     8    3    4 ar
     9    4    5 ar
    10    4   13 1
    11    5    6 ar
    12    5    8 1
    13    6    7 ar
    14    6   19 1
    15    8    9 1
    16    8   20 1
    17    8   21 1
    18    9   10 1
    19   10   11 2
    20   10   12 1
    21   10   14 1
    22   12   13 1
    23   13   22 1
    24   13   23 1
    25   15   24 1
@<TRIPOS>MOLECULE
ZINC13555417
   24    25     0     0     0
SMALL
USER_CHARGES

@<TRIPOS>ATOM
      1 C1         -0.0127    1.0858    0.0080 C.3       1 <0>        -0.0970
      2 C2         -0.7416    1.5850   -1.2129 C.ar      1 <0>        -0.0159
      3 C3         -2.1118    1.7952   -1.1571 C.ar      1 <0>         0.2785
      4 C4         -2.7723    2.2559   -2.2876 C.ar      1 <0>        -0.1460
      5 C5         -2.0258    2.4908   -3.4428 C.ar      1 <0>        -0.0905
      6 C6         -0.6652    2.2556   -3.4162 C.ar      1 <0>        -0.0047
      7 N1         -0.0703    1.8230   -2.3223 N.ar      1 <0>        -0.3882
      8 C7         -2.6942    2.9924   -4.6880 C.3       1 <0>         0.1453
      9 O1         -3.1401    4.3386   -4.4990 O.3       1 <0>        -0.7202
     10 P1         -4.5591    4.6609   -3.7883 P.3       1 <0>         2.1545
     11 O2         -4.7152    6.1834   -3.5768 O.2       1 <0>        -1.0449
     12 O3         -4.5215    3.8998   -2.3594 O.3       1 <0>        -0.7193
     13 C8         -4.2514    2.4966   -2.2742 C.3       1 <0>         0.1485
     14 O4         -5.7217    4.1219   -4.6514 O.3       1 <0>        -1.0796
     15 O5         -2.7988    1.5535   -0.0096 O.3       1 <0>        -0.6233
     16 H1          0.0021   -0.0041    0.0020 H         1 <0>         0.0815
     17 H2          1.0099    1.4631    0.0003 H         1 <0>         0.0651
     18 H3         -0.5229    1.4373    0.9048 H         1 <0>         0.1021
     19 H4         -0.0783    2.4328   -4.3053 H         1 <0>         0.1826
     20 H5         -1.9866    2.9590   -5.5165 H         1 <0>         0.0997
     21 H6         -3.5494    2.3576   -4.9198 H         1 <0>         0.0741
     22 H7         -4.7081    1.9880   -3.1232 H         1 <0>         0.0624
     23 H8         -4.6733    2.1028   -1.3496 H         1 <0>         0.1115
     24 H9          0.8878    1.6720   -2.3351 H         1 <0>         0.4240
@<TRIPOS>BOND
     1    1   16 1
     2    1   17 1
     3    1   18 1
     4    1    2 1
     5    2    3 ar
     6    2    7 ar
     7    3   15 1
     8    3    4 ar
     9    4    5 ar
    10    4   13 1
    11    5    6 ar
    12    5    8 1
    13    6    7 ar
    14    6   19 1
    15    7   24 1
    16    8    9 1
    17    8   20 1
    18    8   21 1
    19    9   10 1
    20   10   11 2
    21   10   12 1
    22   10   14 1
    23   12   13 1
    24   13   22 1
    25   13   23 1
@<TRIPOS>MOLECULE
ZINC26376205
   24    25     0     0     0
SMALL
USER_CHARGES

@<TRIPOS>ATOM
      1 C1         -0.0127    1.0858    0.0080 C.3       1 <0>        -0.0970
      2 C2         -0.7416    1.5850   -1.2129 C.ar      1 <0>        -0.0159
      3 C3         -2.1118    1.7952   -1.1571 C.ar      1 <0>         0.2785
      4 C4         -2.7723    2.2559   -2.2876 C.ar      1 <0>        -0.1461
      5 C5         -2.0258    2.4908   -3.4428 C.ar      1 <0>        -0.0905
      6 C6         -0.6652    2.2556   -3.4162 C.ar      1 <0>        -0.0047
      7 N1         -0.0703    1.8230   -2.3223 N.ar      1 <0>        -0.3882
      8 C7         -2.6942    2.9924   -4.6880 C.3       1 <0>         0.1453
      9 O1         -3.1401    4.3386   -4.4990 O.3       1 <0>        -0.7202
     10 P1         -4.5591    4.6609   -3.7883 P.3       1 <0>         2.1547
     11 O2         -5.7215    4.1191   -4.6498 O.2       1 <0>        -1.0797
     12 O3         -4.5215    3.8998   -2.3594 O.3       1 <0>        -0.7194
     13 C8         -4.2512    2.4975   -2.2739 C.3       1 <0>         0.1487
     14 O4         -4.7166    6.1837   -3.5797 O.3       1 <0>        -1.0448
     15 O5         -2.7989    1.5526   -0.0098 O.3       1 <0>        -0.6234
     16 H1          0.0021   -0.0041    0.0020 H         1 <0>         0.0815
     17 H2          1.0099    1.4631    0.0003 H         1 <0>         0.0651
     18 H3         -0.5229    1.4373    0.9048 H         1 <0>         0.1021
     19 H4         -0.0783    2.4328   -4.3053 H         1 <0>         0.1826
     20 H5         -1.9866    2.9590   -5.5165 H         1 <0>         0.0997
     21 H6         -3.5494    2.3576   -4.9198 H         1 <0>         0.0742
     22 H7         -4.7083    1.9896   -3.1231 H         1 <0>         0.0622
     23 H8         -4.6733    2.1036   -1.3494 H         1 <0>         0.1114
     24 H9          0.8878    1.6720   -2.3351 H         1 <0>         0.4240
@<TRIPOS>BOND
     1    1   16 1
     2    1   17 1
     3    1   18 1
     4    1    2 1
     5    2    3 ar
     6    2    7 ar
     7    3   15 1
     8    3    4 ar
     9    4    5 ar
    10    4   13 1
    11    5    6 ar
    12    5    8 1
    13    6    7 ar
    14    6   19 1
    15    7   24 1
    16    8    9 1
    17    8   20 1
    18    8   21 1
    19    9   10 1
    20   10   11 2
    21   10   12 1
    22   10   14 1
    23   12   13 1
    24   13   22 1
    25   13   23 1
