@<TRIPOS>MOLECULE
ZINC20230303
   52    54     0     0     0
SMALL
USER_CHARGES
ethyl 5-cyano-6-[4-(phenylcarbamoyl)piperazin-1-yl]-2-(trifluoromethyl)pyridine-3-carboxylate
@<TRIPOS>ATOM
      1 C1         -0.2095  -12.6841    3.9746 C.3       1 <0>        -0.1572
      2 C2         -0.8664  -11.4311    4.5571 C.3       1 <0>         0.0622
      3 O1         -0.7715  -10.3447    3.5984 O.3       1 <0>        -0.3476
      4 C3         -1.3060   -9.1616    3.9596 C.2       1 <0>         0.5082
      5 O2         -1.8369   -9.0412    5.0459 O.2       1 <0>        -0.4732
      6 C4         -1.2466   -8.0133    3.0366 C.ar      1 <0>        -0.1386
      7 C5         -0.6365   -8.1426    1.7831 C.ar      1 <0>         0.0388
      8 C6         -0.6101   -7.0288    0.9441 C.ar      1 <0>        -0.0326
      9 C7         -1.1851   -5.8241    1.3929 C.ar      1 <0>         0.3800
     10 N1         -1.7518   -5.7495    2.5886 N.ar      1 <0>        -0.4702
     11 C8         -1.7985   -6.7820    3.4027 C.ar      1 <0>         0.1455
     12 C9         -2.4573   -6.6354    4.7502 C.3       1 <0>         0.5266
     13 F1         -3.0332   -5.3645    4.8519 F         1 <0>        -0.1618
     14 F2         -3.4506   -7.6103    4.8921 F         1 <0>        -0.1518
     15 F3         -1.4996   -6.7954    5.7574 F         1 <0>        -0.1568
     16 N2         -1.1632   -4.7122    0.5775 N.pl3     1 <0>        -0.4852
     17 C10        -2.4231   -3.9630    0.6749 C.3       1 <0>         0.0383
     18 C11        -2.4311   -2.8452   -0.3732 C.3       1 <0>         0.1153
     19 N3         -1.2131   -2.0381   -0.2049 N.am      1 <0>        -0.6289
     20 C12         0.0820   -2.7338   -0.1608 C.3       1 <0>         0.1349
     21 C13        -0.0094   -3.8566    0.8849 C.3       1 <0>         0.0424
     22 C14        -1.2814   -0.6962   -0.0996 C.2       1 <0>         0.7132
     23 O3         -0.2615   -0.0345   -0.0888 O.2       1 <0>        -0.5687
     24 N4         -2.4804   -0.0878   -0.0061 N.am      1 <0>        -0.6975
     25 C15        -2.5655    1.3068   -0.0856 C.ar      1 <0>         0.1647
     26 C16        -1.5285    2.0956    0.3949 C.ar      1 <0>        -0.1285
     27 C17        -1.6132    3.4716    0.3101 C.ar      1 <0>        -0.1012
     28 C18        -2.7336    4.0641   -0.2428 C.ar      1 <0>        -0.1390
     29 C19        -3.7704    3.2815   -0.7168 C.ar      1 <0>        -0.1008
     30 C20        -3.6895    1.9049   -0.6398 C.ar      1 <0>        -0.1508
     31 C21        -0.0034   -7.1074   -0.3506 C.1       1 <0>         0.2550
     32 N5          0.4779   -7.1697   -1.3777 N.1       1 <0>        -0.3690
     33 H1         -0.2814  -13.5071    4.7009 H         1 <0>         0.0860
     34 H2          0.8490  -12.4766    3.7591 H         1 <0>         0.0694
     35 H3         -0.7239  -12.9693    3.0451 H         1 <0>         0.0695
     36 H4         -1.9249  -11.6386    4.7726 H         1 <0>         0.0784
     37 H5         -0.3521  -11.1458    5.4867 H         1 <0>         0.0782
     38 H6         -0.2012   -9.0810    1.4726 H         1 <0>         0.1799
     39 H7         -3.2688   -4.6428    0.4942 H         1 <0>         0.0982
     40 H8         -2.5127   -3.5254    1.6801 H         1 <0>         0.0739
     41 H9         -2.4522   -3.2871   -1.3803 H         1 <0>         0.0868
     42 H10        -3.3214   -2.2151   -0.2305 H         1 <0>         0.0896
     43 H11         0.3044   -3.1576   -1.1512 H         1 <0>         0.0821
     44 H12         0.8718   -2.0210    0.1188 H         1 <0>         0.1104
     45 H13        -0.1342   -3.4185    1.8862 H         1 <0>         0.0669
     46 H14         0.9107   -4.4590    0.8603 H         1 <0>         0.0978
     47 H15        -3.3921   -0.6874    0.1327 H         1 <0>         0.4260
     48 H16        -0.6550    1.6336    0.8306 H         1 <0>         0.1464
     49 H17        -0.8054    4.0855    0.6802 H         1 <0>         0.1243
     50 H18        -2.7993    5.1403   -0.3041 H         1 <0>         0.1221
     51 H19        -4.6442    3.7472   -1.1481 H         1 <0>         0.1252
     52 H20        -4.4998    1.2942   -1.0099 H         1 <0>         0.1231
@<TRIPOS>BOND
     1    1    2 1
     2    1   33 1
     3    1   34 1
     4    1   35 1
     5    2    3 1
     6    2   36 1
     7    2   37 1
     8    3    4 1
     9    4    5 2
    10    4    6 1
    11    6   11 ar
    12    6    7 ar
    13    7    8 ar
    14    7   38 1
    15    8    9 ar
    16    8   31 1
    17    9   10 ar
    18    9   16 1
    19   10   11 ar
    20   11   12 1
    21   12   13 1
    22   12   14 1
    23   12   15 1
    24   16   21 1
    25   16   17 1
    26   17   18 1
    27   17   39 1
    28   17   40 1
    29   18   19 1
    30   18   41 1
    31   18   42 1
    32   19   20 1
    33   19   22 am
    34   20   21 1
    35   20   43 1
    36   20   44 1
    37   21   45 1
    38   21   46 1
    39   22   23 2
    40   22   24 am
    41   24   25 1
    42   24   47 1
    43   25   30 ar
    44   25   26 ar
    45   26   27 ar
    46   26   48 1
    47   27   28 ar
    48   27   49 1
    49   28   29 ar
    50   28   50 1
    51   29   30 ar
    52   29   51 1
    53   30   52 1
    54   31   32 3
@<TRIPOS>MOLECULE
ZINC71281387
   52    54     0     0     0
SMALL
USER_CHARGES

@<TRIPOS>ATOM
      1 C1          1.9390   -3.0878   -2.6463 C.3       1 <0>        -0.1538
      2 C2          1.0157   -3.1824   -1.4299 C.3       1 <0>         0.0596
      3 O1          1.8006   -3.3571   -0.2486 O.3       1 <0>        -0.3391
      4 C3          1.1351   -3.4588    0.9186 C.2       1 <0>         0.5083
      5 O2         -0.0785   -3.4006    0.9330 O.2       1 <0>        -0.4692
      6 C4          1.8795   -3.6405    2.1784 C.ar      1 <0>        -0.1253
      7 C5          2.9960   -4.4840    2.2262 C.ar      1 <0>         0.0297
      8 C6          3.6667   -4.6224    3.4411 C.ar      1 <0>        -0.0469
      9 C7          3.1970   -3.9128    4.5633 C.ar      1 <0>         0.4568
     10 N1          2.1348   -3.1258    4.4698 N.ar      1 <0>        -0.4456
     11 C8          1.4825   -2.9682    3.3381 C.ar      1 <0>         0.1350
     12 C9          0.2855   -2.0538    3.2927 C.3       1 <0>         0.5209
     13 F1         -0.8850   -2.8192    3.2554 F         1 <0>        -0.1500
     14 F2          0.2755   -1.2417    4.4319 F         1 <0>        -0.1563
     15 F3          0.3546   -1.2515    2.1487 F         1 <0>        -0.1651
     16 N2          3.8489   -4.0386    5.7720 N.pl3     1 <0>        -0.6623
     17 C10         4.8782   -3.0685    6.1713 C.3       1 <0>         0.1297
     18 C11         4.4963   -2.4827    7.5363 C.3       1 <0>         0.1136
     19 N3          4.1738   -3.5889    8.4485 N.am      1 <0>        -0.6214
     20 C12         3.1445   -4.5590    8.0492 C.3       1 <0>         0.0940
     21 C13         3.5224   -5.1416    6.6867 C.3       1 <0>         0.1295
     22 C14         4.8108   -3.7118    9.6298 C.2       1 <0>         0.7103
     23 O3          5.7278   -2.9629    9.9068 O.2       1 <0>        -0.5657
     24 N4          4.4314   -4.6647   10.5041 N.am      1 <0>        -0.6858
     25 C15         5.0475   -4.7494   11.7578 C.ar      1 <0>         0.1775
     26 C16         5.4496   -3.5937   12.4149 C.ar      1 <0>        -0.1136
     27 C17         6.0569   -3.6798   13.6522 C.ar      1 <0>        -0.0859
     28 C18         6.2656   -4.9152   14.2375 C.ar      1 <0>        -0.1257
     29 C19         5.8667   -6.0688   13.5856 C.ar      1 <0>        -0.0149
     30 C20         5.2527   -5.9883   12.3495 C.ar      1 <0>        -0.1410
     31 Cl1         6.1311   -7.6178   14.3236 Cl        1 <0>        -0.0649
     32 C21         4.8142   -5.4726    3.5460 C.1       1 <0>         0.2514
     33 N5          5.7245   -6.1471    3.6292 N.1       1 <0>        -0.3702
     34 H1          2.5237   -4.0039   -2.7308 H         1 <0>         0.0683
     35 H2          1.3403   -2.9546   -3.5473 H         1 <0>         0.0844
     36 H3          2.6107   -2.2377   -2.5274 H         1 <0>         0.0691
     37 H4          0.4310   -2.2664   -1.3454 H         1 <0>         0.0754
     38 H5          0.3440   -4.0326   -1.5488 H         1 <0>         0.0744
     39 H6          3.3287   -5.0137    1.3458 H         1 <0>         0.1748
     40 H7          5.8436   -3.5690    6.2452 H         1 <0>         0.0732
     41 H8          4.9334   -2.2689    5.4325 H         1 <0>         0.0898
     42 H9          5.3338   -1.9110    7.9362 H         1 <0>         0.1077
     43 H10         3.6271   -1.8343    7.4259 H         1 <0>         0.0798
     44 H11         3.0892   -5.3585    8.7880 H         1 <0>         0.0862
     45 H12         2.1791   -4.0584    7.9754 H         1 <0>         0.0852
     46 H13         2.6826   -5.7108    6.2883 H         1 <0>         0.0894
     47 H14         4.3891   -5.7932    6.7981 H         1 <0>         0.0720
     48 H15         3.7313   -5.2919   10.2644 H         1 <0>         0.4068
     49 H16         5.2877   -2.6284   11.9585 H         1 <0>         0.1419
     50 H17         6.3696   -2.7812   14.1633 H         1 <0>         0.1373
     51 H18         6.7410   -4.9798   15.2050 H         1 <0>         0.1355
     52 H19         4.9371   -6.8884   11.8429 H         1 <0>         0.1351
@<TRIPOS>BOND
     1    1    2 1
     2    1   34 1
     3    1   35 1
     4    1   36 1
     5    2    3 1
     6    2   37 1
     7    2   38 1
     8    3    4 1
     9    4    5 2
    10    4    6 1
    11    6   11 ar
    12    6    7 ar
    13    7    8 ar
    14    7   39 1
    15    8    9 ar
    16    8   32 1
    17    9   10 ar
    18    9   16 1
    19   10   11 ar
    20   11   12 1
    21   12   13 1
    22   12   14 1
    23   12   15 1
    24   16   21 1
    25   16   17 1
    26   17   18 1
    27   17   40 1
    28   17   41 1
    29   18   19 1
    30   18   42 1
    31   18   43 1
    32   19   20 1
    33   19   22 am
    34   20   21 1
    35   20   44 1
    36   20   45 1
    37   21   46 1
    38   21   47 1
    39   22   23 2
    40   22   24 am
    41   24   25 1
    42   24   48 1
    43   25   30 ar
    44   25   26 ar
    45   26   27 ar
    46   26   49 1
    47   27   28 ar
    48   27   50 1
    49   28   29 ar
    50   28   51 1
    51   29   30 ar
    52   29   31 1
    53   30   52 1
    54   32   33 3
@<TRIPOS>MOLECULE
ZINC20230306
   52    54     0     0     0
SMALL
USER_CHARGES
ethyl 6-[4-[(4-chlorophenyl)carbamoyl]piperazin-1-yl]-5-cyano-2-(trifluoromethyl)pyridine-3-carboxylate
@<TRIPOS>ATOM
      1 C1          9.0367    8.4271    4.4608 C.3       1 <0>        -0.1572
      2 C2          8.0249    7.4398    5.0461 C.3       1 <0>         0.0623
      3 O1          7.3538    6.7376    3.9668 O.3       1 <0>        -0.3478
      4 C3          6.4251    5.8254    4.3147 C.2       1 <0>         0.5085
      5 O2          6.1827    5.6223    5.4879 O.2       1 <0>        -0.4739
      6 C4          5.7030    5.0737    3.2718 C.ar      1 <0>        -0.1425
      7 C5          5.9753    5.3014    1.9175 C.ar      1 <0>         0.0418
      8 C6          5.2693    4.5616    0.9691 C.ar      1 <0>        -0.0398
      9 C7          4.3098    3.6293    1.4089 C.ar      1 <0>         0.3824
     10 N1          4.0862    3.4481    2.7026 N.ar      1 <0>        -0.4721
     11 C8          4.7379    4.1253    3.6234 C.ar      1 <0>         0.1486
     12 C9          4.4398    3.8744    5.0792 C.3       1 <0>         0.5267
     13 F1          3.5338    2.8146    5.1938 F         1 <0>        -0.1618
     14 F2          5.6245    3.5496    5.7485 F         1 <0>        -0.1516
     15 F3          3.8843    5.0262    5.6466 F         1 <0>        -0.1567
     16 N2          3.5995    2.8931    0.4840 N.pl3     1 <0>        -0.4824
     17 C10         3.2683    1.5630    1.0121 C.3       1 <0>         0.0403
     18 C11         2.6431    0.7161   -0.1016 C.3       1 <0>         0.1135
     19 N3          1.5091    1.4586   -0.6725 N.am      1 <0>        -0.6287
     20 C12         1.7329    2.8467   -1.1044 C.3       1 <0>         0.1341
     21 C13         2.3925    3.6116    0.0541 C.3       1 <0>         0.0431
     22 C14         0.2984    0.8807   -0.8016 C.2       1 <0>         0.7140
     23 O3         -0.6637    1.5505   -1.1243 O.2       1 <0>        -0.5682
     24 N4          0.1531   -0.4386   -0.5676 N.am      1 <0>        -0.6977
     25 C15        -1.0681   -1.0673   -0.8387 C.ar      1 <0>         0.1720
     26 C16        -2.2607   -0.3829   -0.6452 C.ar      1 <0>        -0.1119
     27 C17        -3.4638   -1.0037   -0.9185 C.ar      1 <0>        -0.0900
     28 C18        -3.4819   -2.3102   -1.3742 C.ar      1 <0>        -0.0528
     29 C19        -2.2950   -2.9963   -1.5623 C.ar      1 <0>        -0.0900
     30 C20        -1.0889   -2.3782   -1.2961 C.ar      1 <0>        -0.1364
     31 Cl1        -4.9961   -3.0896   -1.7109 Cl        1 <0>        -0.0706
     32 C21         5.5121    4.7510   -0.4294 C.1       1 <0>         0.2543
     33 N5          5.7048    4.9012   -1.5388 N.1       1 <0>        -0.3696
     34 H1          9.5451    8.9590    5.2785 H         1 <0>         0.0860
     35 H2          8.5130    9.1527    3.8210 H         1 <0>         0.0694
     36 H3          9.7793    7.8793    3.8621 H         1 <0>         0.0694
     37 H4          8.5486    6.7142    5.6859 H         1 <0>         0.0783
     38 H5          7.2822    7.9875    5.6448 H         1 <0>         0.0782
     39 H6          6.7152    6.0278    1.6152 H         1 <0>         0.1796
     40 H7          4.1843    1.0744    1.3757 H         1 <0>         0.1001
     41 H8          2.5533    1.6655    1.8418 H         1 <0>         0.0747
     42 H9          3.3950    0.5221   -0.8807 H         1 <0>         0.0868
     43 H10         2.2936   -0.2394    0.3166 H         1 <0>         0.0900
     44 H11         2.3915    2.8549   -1.9854 H         1 <0>         0.0826
     45 H12         0.7693    3.3103   -1.3626 H         1 <0>         0.1122
     46 H13         1.6888    3.6832    0.8965 H         1 <0>         0.0682
     47 H14         2.6674    4.6226   -0.2809 H         1 <0>         0.0976
     48 H15         0.9940   -1.0214   -0.1636 H         1 <0>         0.4284
     49 H16        -2.2473    0.6354   -0.2857 H         1 <0>         0.1508
     50 H17        -4.3915   -0.4703   -0.7724 H         1 <0>         0.1362
     51 H18        -2.3118   -4.0159   -1.9181 H         1 <0>         0.1372
     52 H19        -0.1629   -2.9139   -1.4438 H         1 <0>         0.1343
@<TRIPOS>BOND
     1    1    2 1
     2    1   34 1
     3    1   35 1
     4    1   36 1
     5    2    3 1
     6    2   37 1
     7    2   38 1
     8    3    4 1
     9    4    5 2
    10    4    6 1
    11    6   11 ar
    12    6    7 ar
    13    7    8 ar
    14    7   39 1
    15    8    9 ar
    16    8   32 1
    17    9   10 ar
    18    9   16 1
    19   10   11 ar
    20   11   12 1
    21   12   13 1
    22   12   14 1
    23   12   15 1
    24   16   21 1
    25   16   17 1
    26   17   18 1
    27   17   40 1
    28   17   41 1
    29   18   19 1
    30   18   42 1
    31   18   43 1
    32   19   20 1
    33   19   22 am
    34   20   21 1
    35   20   44 1
    36   20   45 1
    37   21   46 1
    38   21   47 1
    39   22   23 2
    40   22   24 am
    41   24   25 1
    42   24   48 1
    43   25   30 ar
    44   25   26 ar
    45   26   27 ar
    46   26   49 1
    47   27   28 ar
    48   27   50 1
    49   28   29 ar
    50   28   31 1
    51   29   30 ar
    52   29   51 1
    53   30   52 1
    54   32   33 3
@<TRIPOS>MOLECULE
ZINC71295290
   52    54     0     0     0
SMALL
USER_CHARGES

@<TRIPOS>ATOM
      1 C1         -3.1829   -3.1706   -0.3429 C.3       1 <0>        -0.1538
      2 C2         -1.6661   -3.2263   -0.1506 C.3       1 <0>         0.0596
      3 O1         -1.0306   -3.3894   -1.4201 O.3       1 <0>        -0.3391
      4 C3          0.3151   -3.4571   -1.4264 C.2       1 <0>         0.5082
      5 O2          0.9322   -3.3798   -0.3825 O.2       1 <0>        -0.4691
      6 C4          1.0389   -3.6251   -2.7000 C.ar      1 <0>        -0.1249
      7 C5          0.5443   -4.4850   -3.6880 C.ar      1 <0>         0.0297
      8 C6          1.2650   -4.6093   -4.8755 C.ar      1 <0>        -0.0468
      9 C7          2.4532   -3.8698   -5.0319 C.ar      1 <0>         0.4563
     10 N1          2.8827   -3.0681   -4.0679 N.ar      1 <0>        -0.4455
     11 C8          2.2244   -2.9231   -2.9380 C.ar      1 <0>         0.1350
     12 C9          2.7596   -1.9910   -1.8817 C.3       1 <0>         0.5209
     13 F1          3.3313   -2.7384   -0.8465 F         1 <0>        -0.1499
     14 F2          3.7303   -1.1559   -2.4452 F         1 <0>        -0.1563
     15 F3          1.7139   -1.2133   -1.3729 F         1 <0>        -0.1650
     16 N2          3.1776   -3.9813   -6.2001 N.pl3     1 <0>        -0.6623
     17 C10         2.9846   -3.0198   -7.2946 C.3       1 <0>         0.1295
     18 C11         4.3425   -2.4004   -7.6480 C.3       1 <0>         0.1133
     19 N3          5.3217   -3.4826   -7.8204 N.am      1 <0>        -0.6202
     20 C12         5.5147   -4.4442   -6.7258 C.3       1 <0>         0.0935
     21 C13         4.1609   -5.0603   -6.3703 C.3       1 <0>         0.1293
     22 C14         6.0297   -3.5916   -8.9620 C.2       1 <0>         0.7107
     23 O3          5.7925   -2.8520   -9.8975 O.2       1 <0>        -0.5643
     24 N4          7.0006   -4.5205   -9.0668 N.am      1 <0>        -0.6847
     25 C15         7.7814   -4.5896  -10.2274 C.ar      1 <0>         0.1862
     26 C16         8.1199   -3.4273  -10.9076 C.ar      1 <0>        -0.0991
     27 C17         8.8904   -3.4962  -12.0520 C.ar      1 <0>        -0.1027
     28 C18         9.3258   -4.7232  -12.5221 C.ar      1 <0>         0.0523
     29 C19         8.9894   -5.8857  -11.8451 C.ar      1 <0>         0.0905
     30 C20         8.2224   -5.8195  -10.6959 C.ar      1 <0>        -0.1572
     31 F4          9.4147   -7.0825  -12.3054 F         1 <0>        -0.1242
     32 F5         10.0789   -4.7882  -13.6418 F         1 <0>        -0.1273
     33 C21         0.8044   -5.4754   -5.9188 C.1       1 <0>         0.2513
     34 N5          0.4390   -6.1624   -6.7464 N.1       1 <0>        -0.3702
     35 H1         -3.4368   -2.3288   -0.9872 H         1 <0>         0.0691
     36 H2         -3.5249   -4.0971   -0.8041 H         1 <0>         0.0683
     37 H3         -3.6676   -3.0462    0.6254 H         1 <0>         0.0845
     38 H4         -1.3240   -2.2998    0.3105 H         1 <0>         0.0755
     39 H5         -1.4122   -4.0681    0.4936 H         1 <0>         0.0745
     40 H6         -0.3708   -5.0377   -3.5344 H         1 <0>         0.1748
     41 H7          2.5792   -3.5340   -8.1660 H         1 <0>         0.0734
     42 H8          2.2969   -2.2364   -6.9763 H         1 <0>         0.0901
     43 H9          4.2560   -1.8341   -8.5753 H         1 <0>         0.1083
     44 H10         4.6644   -1.7407   -6.8422 H         1 <0>         0.0807
     45 H11         6.2025   -5.2276   -7.0442 H         1 <0>         0.0865
     46 H12         5.9201   -3.9300   -5.8544 H         1 <0>         0.0861
     47 H13         4.2498   -5.6240   -5.4417 H         1 <0>         0.0897
     48 H14         3.8412   -5.7231   -7.1744 H         1 <0>         0.0722
     49 H15         7.1587   -5.1412   -8.3383 H         1 <0>         0.4090
     50 H16         7.7805   -2.4694  -10.5420 H         1 <0>         0.1533
     51 H17         9.1530   -2.5918  -12.5807 H         1 <0>         0.1518
     52 H18         7.9635   -6.7243  -10.1659 H         1 <0>         0.1486
@<TRIPOS>BOND
     1    1    2 1
     2    1   35 1
     3    1   36 1
     4    1   37 1
     5    2    3 1
     6    2   38 1
     7    2   39 1
     8    3    4 1
     9    4    5 2
    10    4    6 1
    11    6   11 ar
    12    6    7 ar
    13    7    8 ar
    14    7   40 1
    15    8    9 ar
    16    8   33 1
    17    9   10 ar
    18    9   16 1
    19   10   11 ar
    20   11   12 1
    21   12   13 1
    22   12   14 1
    23   12   15 1
    24   16   21 1
    25   16   17 1
    26   17   18 1
    27   17   41 1
    28   17   42 1
    29   18   19 1
    30   18   43 1
    31   18   44 1
    32   19   20 1
    33   19   22 am
    34   20   21 1
    35   20   45 1
    36   20   46 1
    37   21   47 1
    38   21   48 1
    39   22   23 2
    40   22   24 am
    41   24   25 1
    42   24   49 1
    43   25   30 ar
    44   25   26 ar
    45   26   27 ar
    46   26   50 1
    47   27   28 ar
    48   27   51 1
    49   28   29 ar
    50   28   32 1
    51   29   30 ar
    52   29   31 1
    53   30   52 1
    54   33   34 3
@<TRIPOS>MOLECULE
ZINC71295374
   55    57     0     0     0
SMALL
USER_CHARGES

@<TRIPOS>ATOM
      1 C1          1.3249   -0.7693   -1.9357 C.3       1 <0>        -0.1537
      2 C2          0.5435   -1.6328   -0.9434 C.3       1 <0>         0.0591
      3 O1          1.3116   -1.8007    0.2499 O.3       1 <0>        -0.3384
      4 C3          0.7618   -2.5414    1.2321 C.2       1 <0>         0.5086
      5 O2         -0.3395   -3.0314    1.0796 O.2       1 <0>        -0.4688
      6 C4          1.4968   -2.7573    2.4920 C.ar      1 <0>        -0.1239
      7 C5          2.8484   -3.1220    2.4703 C.ar      1 <0>         0.0280
      8 C6          3.4996   -3.3142    3.6885 C.ar      1 <0>        -0.0462
      9 C7          2.7761   -3.1349    4.8834 C.ar      1 <0>         0.4570
     10 N1          1.4969   -2.7896    4.8542 N.ar      1 <0>        -0.4448
     11 C8          0.8540   -2.5947    3.7229 C.ar      1 <0>         0.1330
     12 C9         -0.5990   -2.1963    3.7542 C.3       1 <0>         0.5197
     13 F1         -1.3933   -3.3041    3.4395 F         1 <0>        -0.1505
     14 F2         -0.9285   -1.7346    5.0331 F         1 <0>        -0.1552
     15 F3         -0.8243   -1.1803    2.8193 F         1 <0>        -0.1658
     16 N2          3.4052   -3.3211    6.0964 N.pl3     1 <0>        -0.6620
     17 C10         3.9785   -2.1805    6.8245 C.3       1 <0>         0.1299
     18 C11         3.3778   -2.1476    8.2353 C.3       1 <0>         0.1145
     19 N3          3.4864   -3.4901    8.8233 N.am      1 <0>        -0.6267
     20 C12         2.9130   -4.6307    8.0952 C.3       1 <0>         0.0973
     21 C13         3.5088   -4.6628    6.6871 C.3       1 <0>         0.1298
     22 C14         4.1011   -3.6720   10.0088 C.2       1 <0>         0.7094
     23 O3          4.6472   -2.7361   10.5604 O.2       1 <0>        -0.5848
     24 N4          4.1105   -4.8914   10.5830 N.am      1 <0>        -0.7425
     25 C15         4.6824   -5.0669   11.9203 C.3       1 <0>         0.1798
     26 C16         4.5697   -6.5131   12.3289 C.ar      1 <0>        -0.1121
     27 C17         3.4445   -6.9565   12.9983 C.ar      1 <0>        -0.0997
     28 C18         3.3411   -8.2831   13.3731 C.ar      1 <0>        -0.1216
     29 C19         4.3628   -9.1663   13.0781 C.ar      1 <0>        -0.1105
     30 C20         5.4876   -8.7231   12.4078 C.ar      1 <0>        -0.1218
     31 C21         5.5891   -7.3974   12.0293 C.ar      1 <0>        -0.0999
     32 C22         4.8814   -3.6882    3.7238 C.1       1 <0>         0.2522
     33 N5          5.9776   -3.9850    3.7517 N.1       1 <0>        -0.3710
     34 H1          2.2692   -1.2573   -2.1770 H         1 <0>         0.0682
     35 H2          0.7391   -0.6413   -2.8459 H         1 <0>         0.0843
     36 H3          1.5232    0.2060   -1.4910 H         1 <0>         0.0692
     37 H4         -0.4008   -1.1448   -0.7021 H         1 <0>         0.0753
     38 H5          0.3452   -2.6081   -1.3881 H         1 <0>         0.0742
     39 H6          3.3727   -3.2513    1.5350 H         1 <0>         0.1738
     40 H7          5.0605   -2.2949    6.8902 H         1 <0>         0.0722
     41 H8          3.7371   -1.2545    6.3025 H         1 <0>         0.0879
     42 H9          3.9261   -1.4336    8.8498 H         1 <0>         0.1058
     43 H10         2.3289   -1.8564    8.1796 H         1 <0>         0.0763
     44 H11         3.1544   -5.5566    8.6173 H         1 <0>         0.0862
     45 H12         1.8311   -4.5163    8.0296 H         1 <0>         0.0805
     46 H13         2.9573   -5.3759    6.0744 H         1 <0>         0.0871
     47 H14         4.5566   -4.9581    6.7428 H         1 <0>         0.0708
     48 H15         3.7387   -5.6527   10.1107 H         1 <0>         0.3959
     49 H16         5.7321   -4.7736   11.9079 H         1 <0>         0.0765
     50 H17         4.1396   -4.4449   12.6320 H         1 <0>         0.0755
     51 H18         2.6463   -6.2665   13.2288 H         1 <0>         0.1243
     52 H19         2.4623   -8.6294   13.8967 H         1 <0>         0.1249
     53 H20         4.2824  -10.2025   13.3715 H         1 <0>         0.1240
     54 H21         6.2860   -9.4130   12.1776 H         1 <0>         0.1247
     55 H22         6.4662   -7.0519   11.5023 H         1 <0>         0.1240
@<TRIPOS>BOND
     1    1    2 1
     2    1   34 1
     3    1   35 1
     4    1   36 1
     5    2    3 1
     6    2   37 1
     7    2   38 1
     8    3    4 1
     9    4    5 2
    10    4    6 1
    11    6   11 ar
    12    6    7 ar
    13    7    8 ar
    14    7   39 1
    15    8    9 ar
    16    8   32 1
    17    9   10 ar
    18    9   16 1
    19   10   11 ar
    20   11   12 1
    21   12   13 1
    22   12   14 1
    23   12   15 1
    24   16   21 1
    25   16   17 1
    26   17   18 1
    27   17   40 1
    28   17   41 1
    29   18   19 1
    30   18   42 1
    31   18   43 1
    32   19   20 1
    33   19   22 am
    34   20   21 1
    35   20   44 1
    36   20   45 1
    37   21   46 1
    38   21   47 1
    39   22   23 2
    40   22   24 am
    41   24   25 1
    42   24   48 1
    43   25   26 1
    44   25   49 1
    45   25   50 1
    46   26   31 ar
    47   26   27 ar
    48   27   28 ar
    49   27   51 1
    50   28   29 ar
    51   28   52 1
    52   29   30 ar
    53   29   53 1
    54   30   31 ar
    55   30   54 1
    56   31   55 1
    57   32   33 3
@<TRIPOS>MOLECULE
ZINC04016164
   41    44     0     0     0
SMALL
USER_CHARGES

@<TRIPOS>ATOM
      1 C1          6.5122   -0.9218   -2.3612 C.ar      1 <0>        -0.1817
      2 C2          7.0941   -0.8404   -1.1093 C.ar      1 <0>        -0.0777
      3 C3          6.5493   -0.0154   -0.1451 C.ar      1 <0>        -0.1838
      4 C4          5.4148    0.7330   -0.4339 C.ar      1 <0>         0.2298
      5 C5          4.8295    0.6445   -1.6909 C.ar      1 <0>        -0.1927
      6 C6          5.3830   -0.1782   -2.6521 C.ar      1 <0>        -0.0742
      7 N1          4.8608    1.5681    0.5390 N.pl3     1 <0>        -0.6819
      8 C7          3.6543    2.2075    0.2983 C.ar      1 <0>         0.1164
      9 C8          3.6345    3.5638   -0.0437 C.ar      1 <0>         0.0410
     10 C9          2.4544    4.2041   -0.2823 C.ar      1 <0>        -0.7023
     11 C10         1.2387    3.5181   -0.1913 C.ar      1 <0>         0.3480
     12 C11         1.2311    2.1625    0.1479 C.ar      1 <0>        -0.2362
     13 C12         2.4534    1.4990    0.3947 C.ar      1 <0>        -0.0584
     14 C13         2.4493    0.0708    0.7508 C.2       1 <0>         0.4320
     15 O1          3.4490   -0.4537    1.2034 O.2       1 <0>        -0.4100
     16 C14         1.2147   -0.7190    0.5510 C.ar      1 <0>        -0.1142
     17 C15         1.2470   -2.1090    0.6023 C.ar      1 <0>        -0.0709
     18 C16         0.0825   -2.8312    0.4124 C.ar      1 <0>        -0.1044
     19 C17        -1.1151   -2.1813    0.1725 C.ar      1 <0>        -0.1036
     20 C18        -1.1649   -0.7998    0.1180 C.ar      1 <0>        -0.0726
     21 C19        -0.0030   -0.0580    0.3059 C.ar      1 <0>        -0.1106
     22 C20        -0.0358    1.4197    0.2498 C.2       1 <0>         0.4475
     23 O2         -1.0966    2.0136    0.2825 O.2       1 <0>        -0.4551
     24 N2          0.0461    4.1804   -0.4370 N.pl3     1 <0>        -0.8374
     25 S1          2.4610    5.9134   -0.7102 S.o2      1 <0>         2.6898
     26 O3          2.6951    5.9806   -2.1102 O.2       1 <0>        -1.0465
     27 O4          1.3133    6.4889   -0.1012 O.2       1 <0>        -1.0435
     28 H1          6.9403   -1.5678   -3.1134 H         1 <0>         0.1140
     29 H2          7.9759   -1.4224   -0.8855 H         1 <0>         0.1173
     30 H3          7.0042    0.0477    0.8323 H         1 <0>         0.1188
     31 H4          3.9450    1.2214   -1.9173 H         1 <0>         0.1183
     32 H5          4.9311   -0.2442   -3.6308 H         1 <0>         0.1175
     33 H6          5.3201    1.7007    1.3830 H         1 <0>         0.4097
     34 H7          4.5633    4.1097   -0.1186 H         1 <0>         0.1506
     35 H8          2.1784   -2.6225    0.7902 H         1 <0>         0.1403
     36 H9          0.1083   -3.9102    0.4521 H         1 <0>         0.1345
     37 H10        -2.0175   -2.7565    0.0269 H         1 <0>         0.1348
     38 H11        -2.1030   -0.2987   -0.0699 H         1 <0>         0.1417
     39 H12        -0.7796    3.8532   -0.0472 H         1 <0>         0.4160
     40 H13         0.0373    4.9711   -0.9989 H         1 <0>         0.4068
     41 O5          3.6723    6.5414   -0.0359 O.3       1 <0>        -1.0670
@<TRIPOS>BOND
     1    1    6 ar
     2    1    2 ar
     3    1   28 1
     4    2    3 ar
     5    2   29 1
     6    3    4 ar
     7    3   30 1
     8    4    5 ar
     9    4    7 1
    10    5    6 ar
    11    5   31 1
    12    6   32 1
    13    7    8 1
    14    7   33 1
    15    8   13 ar
    16    8    9 ar
    17    9   10 ar
    18    9   34 1
    19   10   11 ar
    20   10   25 1
    21   11   12 ar
    22   11   24 1
    23   12   22 1
    24   12   13 ar
    25   13   14 1
    26   14   15 2
    27   14   16 1
    28   16   21 ar
    29   16   17 ar
    30   17   18 ar
    31   17   35 1
    32   18   19 ar
    33   18   36 1
    34   19   20 ar
    35   19   37 1
    36   20   21 ar
    37   20   38 1
    38   21   22 1
    39   22   23 2
    40   24   39 1
    41   24   40 1
    42   25   26 2
    43   25   27 2
    44   25   41 1
@<TRIPOS>MOLECULE
ZINC13831234
   41    44     0     0     0
SMALL
USER_CHARGES

@<TRIPOS>ATOM
      1 C1         -0.3823    0.5182    2.8017 C.ar      1 <0>        -0.1048
      2 C2          0.7244    1.3399    2.9204 C.ar      1 <0>        -0.1025
      3 C3          1.9604    0.9207    2.4632 C.ar      1 <0>        -0.0729
      4 C4          2.0944   -0.3362    1.8791 C.ar      1 <0>        -0.1094
      5 C5          0.9697   -1.1713    1.7584 C.ar      1 <0>        -0.1155
      6 C6         -0.2673   -0.7332    2.2242 C.ar      1 <0>        -0.0712
      7 C7          1.1028   -2.5066    1.1394 C.2       1 <0>         0.4299
      8 O1          0.1301   -3.2292    1.0346 O.2       1 <0>        -0.4112
      9 C8          2.4133   -2.9597    0.6500 C.ar      1 <0>        -0.0554
     10 C9          2.5521   -4.2215    0.0614 C.ar      1 <0>         0.1085
     11 C10         3.8036   -4.6399   -0.4002 C.ar      1 <0>         0.0367
     12 C11         4.8945   -3.8296   -0.2829 C.ar      1 <0>        -0.7023
     13 C12         4.7831   -2.5644    0.3011 C.ar      1 <0>         0.3547
     14 C13         3.5422   -2.1215    0.7712 C.ar      1 <0>        -0.2336
     15 C14         3.4110   -0.7925    1.3871 C.2       1 <0>         0.4438
     16 O2          4.3841   -0.0705    1.4913 O.2       1 <0>        -0.4525
     17 N1          5.8997   -1.7509    0.4147 N.pl3     1 <0>        -0.8306
     18 S1          6.4598   -4.3833   -0.8729 S.o2      1 <0>         2.6896
     19 O3          6.6135   -3.8571   -2.2203 O.2       1 <0>        -1.0542
     20 O4          7.4650   -3.8534    0.0353 O.2       1 <0>        -1.0505
     21 O5          6.4266   -5.8375   -0.8580 O.3       1 <0>        -1.0540
     22 N2          1.4512   -5.0550   -0.0634 N.pl3     1 <0>        -0.6767
     23 C15         0.5511   -4.8706   -1.1161 C.ar      1 <0>         0.2447
     24 C16         0.7753   -3.8733   -2.0570 C.ar      1 <0>        -0.1807
     25 C17        -0.1157   -3.6937   -3.0966 C.ar      1 <0>        -0.0606
     26 C18        -1.2314   -4.5058   -3.2015 C.ar      1 <0>        -0.0945
     27 C19        -1.4576   -5.4998   -2.2655 C.ar      1 <0>        -0.0636
     28 C20        -0.5668   -5.6881   -1.2272 C.ar      1 <0>        -0.1757
     29 Cl1        -2.3497   -4.2768   -4.5094 Cl        1 <0>        -0.0895
     30 H1         -1.3416    0.8544    3.1664 H         1 <0>         0.1346
     31 H2          0.6223    2.3152    3.3728 H         1 <0>         0.1349
     32 H3          2.8202    1.5673    2.5587 H         1 <0>         0.1426
     33 H4         -1.1352   -1.3696    2.1350 H         1 <0>         0.1410
     34 H5          3.9078   -5.6145   -0.8538 H         1 <0>         0.1507
     35 H6          6.6238   -1.8287   -0.2261 H         1 <0>         0.4124
     36 H7          5.9570   -1.1037    1.1350 H         1 <0>         0.4135
     37 H8          1.3058   -5.7661    0.5801 H         1 <0>         0.4102
     38 H9          1.6455   -3.2388   -1.9752 H         1 <0>         0.1271
     39 H10         0.0581   -2.9186   -3.8282 H         1 <0>         0.1291
     40 H11        -2.3295   -6.1316   -2.3495 H         1 <0>         0.1289
     41 H12        -0.7415   -6.4668   -0.4996 H         1 <0>         0.1288
@<TRIPOS>BOND
     1    1    6 ar
     2    1    2 ar
     3    1   30 1
     4    2    3 ar
     5    2   31 1
     6    3    4 ar
     7    3   32 1
     8    4   15 1
     9    4    5 ar
    10    5    6 ar
    11    5    7 1
    12    6   33 1
    13    7    8 2
    14    7    9 1
    15    9   14 ar
    16    9   10 ar
    17   10   11 ar
    18   10   22 1
    19   11   12 ar
    20   11   34 1
    21   12   13 ar
    22   12   18 1
    23   13   14 ar
    24   13   17 1
    25   14   15 1
    26   15   16 2
    27   17   35 1
    28   17   36 1
    29   18   19 2
    30   18   20 2
    31   18   21 1
    32   22   23 1
    33   22   37 1
    34   23   28 ar
    35   23   24 ar
    36   24   25 ar
    37   24   38 1
    38   25   26 ar
    39   25   39 1
    40   26   27 ar
    41   26   29 1
    42   27   28 ar
    43   27   40 1
    44   28   41 1
@<TRIPOS>MOLECULE
ZINC44359329
   56    60     0     0     0
SMALL
USER_CHARGES

@<TRIPOS>ATOM
      1 C1          6.8651   -3.1535   -7.5020 C.ar      1 <0>        -0.1859
      2 C2          7.8386   -4.1283   -7.6229 C.ar      1 <0>        -0.0887
      3 C3          7.9322   -5.1335   -6.6806 C.ar      1 <0>        -0.1826
      4 C4          7.0469   -5.1648   -5.6103 C.ar      1 <0>         0.2246
      5 C5          6.0701   -4.1838   -5.4920 C.ar      1 <0>        -0.1589
      6 C6          5.9822   -3.1815   -6.4379 C.ar      1 <0>        -0.0724
      7 N1          7.1383   -6.1803   -4.6556 N.pl3     1 <0>        -0.6890
      8 C7          6.3196   -6.1500   -3.5212 C.ar      1 <0>         0.1700
      9 C8          5.1944   -6.9624   -3.4547 C.ar      1 <0>        -0.0999
     10 C9          4.3869   -6.9325   -2.3359 C.ar      1 <0>        -0.1577
     11 C10         4.6993   -6.0903   -1.2758 C.ar      1 <0>         0.2009
     12 C11         5.8245   -5.2785   -1.3422 C.ar      1 <0>        -0.0810
     13 C12         6.6349   -5.3120   -2.4594 C.ar      1 <0>        -0.6202
     14 S1          8.0656   -4.2867   -2.5410 S.o2      1 <0>         2.6940
     15 O1          7.6656   -3.0555   -3.2044 O.2       1 <0>        -1.0523
     16 O2          8.4951   -4.0511   -1.1713 O.2       1 <0>        -1.0738
     17 O3          9.0650   -5.0162   -3.3060 O.3       1 <0>        -1.0562
     18 N2          3.8806   -6.0597   -0.1420 N.pl3     1 <0>        -0.6882
     19 C13         2.8408   -6.9668   -0.0134 C.ar      1 <0>         0.1275
     20 C14         1.5240   -6.5659   -0.2645 C.ar      1 <0>         0.0342
     21 C15         0.4924   -7.4489   -0.1414 C.ar      1 <0>        -0.7042
     22 C16         0.7284   -8.7745    0.2384 C.ar      1 <0>         0.3500
     23 C17         2.0343   -9.2006    0.4946 C.ar      1 <0>        -0.2362
     24 C18         3.1040   -8.2874    0.3620 C.ar      1 <0>        -0.0595
     25 C19         4.4814   -8.7343    0.6241 C.2       1 <0>         0.4231
     26 O4          5.3762   -7.9222    0.7630 O.2       1 <0>        -0.3961
     27 C20         4.7644  -10.1831    0.7170 C.ar      1 <0>        -0.1095
     28 C21         6.0734  -10.6530    0.6779 C.ar      1 <0>        -0.0708
     29 C22         6.3191  -12.0115    0.7656 C.ar      1 <0>        -0.1040
     30 C23         5.2722  -12.9072    0.8923 C.ar      1 <0>        -0.1076
     31 C24         3.9647  -12.4571    0.9327 C.ar      1 <0>        -0.0750
     32 C25         3.6997  -11.0940    0.8452 C.ar      1 <0>        -0.1118
     33 C26         2.3072  -10.5905    0.8949 C.2       1 <0>         0.4496
     34 O5          1.3996  -11.3187    1.2490 O.2       1 <0>        -0.4594
     35 N3         -0.3294   -9.6619    0.3605 N.pl3     1 <0>        -0.8389
     36 S2         -1.1554   -6.9146   -0.4636 S.o2      1 <0>         2.6929
     37 O6         -1.4525   -7.2694   -1.8427 O.2       1 <0>        -1.0571
     38 O7         -2.0178   -7.6151    0.4754 O.2       1 <0>        -1.0547
     39 O8         -1.1812   -5.4752   -0.2553 O.3       1 <0>        -1.0551
     40 H1          6.7970   -2.3659   -8.2379 H         1 <0>         0.1079
     41 H2          8.5262   -4.1036   -8.4553 H         1 <0>         0.1109
     42 H3          8.6924   -5.8947   -6.7758 H         1 <0>         0.1151
     43 H4          5.3801   -4.2053   -4.6614 H         1 <0>         0.1183
     44 H5          5.2234   -2.4185   -6.3464 H         1 <0>         0.1136
     45 H6          7.7694   -6.9066   -4.7790 H         1 <0>         0.4073
     46 H7          4.9516   -7.6170   -4.2787 H         1 <0>         0.1214
     47 H8          3.5119   -7.5635   -2.2845 H         1 <0>         0.1200
     48 H9          6.0675   -4.6239   -0.5182 H         1 <0>         0.1326
     49 H10         4.0407   -5.4036    0.5543 H         1 <0>         0.4109
     50 H11         1.3226   -5.5464   -0.5584 H         1 <0>         0.1512
     51 H12         6.8951   -9.9592    0.5790 H         1 <0>         0.1429
     52 H13         7.3354  -12.3756    0.7347 H         1 <0>         0.1338
     53 H14         5.4772  -13.9654    0.9597 H         1 <0>         0.1322
     54 H15         3.1521  -13.1616    1.0316 H         1 <0>         0.1394
     55 H16        -1.1306   -9.5377   -0.1720 H         1 <0>         0.4096
     56 H17        -0.2684  -10.4071    0.9784 H         1 <0>         0.4129
@<TRIPOS>BOND
     1    1    6 ar
     2    1    2 ar
     3    1   40 1
     4    2    3 ar
     5    2   41 1
     6    3    4 ar
     7    3   42 1
     8    4    5 ar
     9    4    7 1
    10    5    6 ar
    11    5   43 1
    12    6   44 1
    13    7    8 1
    14    7   45 1
    15    8   13 ar
    16    8    9 ar
    17    9   10 ar
    18    9   46 1
    19   10   11 ar
    20   10   47 1
    21   11   12 ar
    22   11   18 1
    23   12   13 ar
    24   12   48 1
    25   13   14 1
    26   14   15 2
    27   14   16 2
    28   14   17 1
    29   18   19 1
    30   18   49 1
    31   19   24 ar
    32   19   20 ar
    33   20   21 ar
    34   20   50 1
    35   21   22 ar
    36   21   36 1
    37   22   23 ar
    38   22   35 1
    39   23   33 1
    40   23   24 ar
    41   24   25 1
    42   25   26 2
    43   25   27 1
    44   27   32 ar
    45   27   28 ar
    46   28   29 ar
    47   28   51 1
    48   29   30 ar
    49   29   52 1
    50   30   31 ar
    51   30   53 1
    52   31   32 ar
    53   31   54 1
    54   32   33 1
    55   33   34 2
    56   35   55 1
    57   35   56 1
    58   36   37 2
    59   36   38 2
    60   36   39 1
@<TRIPOS>MOLECULE
ZINC03873984
   46    49     0     0     0
SMALL
USER_CHARGES
1-amino-4-(4-amino-3-sulfo-phenyl)amino-9,10-dioxo-anthracene-2-sulfonic acid
@<TRIPOS>ATOM
      1 C1          7.6502   -2.6282   -1.0865 C.ar      1 <0>        -0.1046
      2 C2          8.7768   -1.8255   -1.0612 C.ar      1 <0>        -0.1097
      3 C3          8.6637   -0.4664   -0.8320 C.ar      1 <0>        -0.0754
      4 C4          7.4085    0.1003   -0.6258 C.ar      1 <0>        -0.1120
      5 C5          6.2635   -0.7153   -0.6518 C.ar      1 <0>        -0.1062
      6 C6          6.3960   -2.0820   -0.8836 C.ar      1 <0>        -0.0731
      7 C7          4.9276   -0.1222   -0.4345 C.2       1 <0>         0.4180
      8 O1          3.9369   -0.8275   -0.4563 O.2       1 <0>        -0.3904
      9 C8          4.7983    1.3221   -0.1913 C.ar      1 <0>        -0.0647
     10 C9          3.5386    1.8957    0.0152 C.ar      1 <0>         0.1405
     11 C10         3.4292    3.2716    0.2392 C.ar      1 <0>         0.0398
     12 C11         4.5405    4.0616    0.2700 C.ar      1 <0>        -0.7044
     13 C12         5.8105    3.5137    0.0667 C.ar      1 <0>         0.3423
     14 C13         5.9475    2.1409   -0.1651 C.ar      1 <0>        -0.2355
     15 C14         7.2775    1.5517   -0.3810 C.2       1 <0>         0.4470
     16 O2          8.2677    2.2577   -0.3585 O.2       1 <0>        -0.4632
     17 N1          6.9314    4.3288    0.0944 N.pl3     1 <0>        -0.8400
     18 S1          4.3733    5.7912    0.5622 S.o2      1 <0>         2.6929
     19 O3          4.3115    5.9608    1.9717 O.2       1 <0>        -1.0492
     20 O4          5.3533    6.4352   -0.2404 O.2       1 <0>        -1.0483
     21 N2          2.4021    1.1031   -0.0078 N.pl3     1 <0>        -0.6954
     22 C15         2.0422    0.3630    1.1238 C.ar      1 <0>         0.1498
     23 C16         2.8407    0.3991    2.2603 C.ar      1 <0>        -0.1108
     24 C17         2.4853   -0.3306    3.3768 C.ar      1 <0>        -0.1819
     25 C18         1.3292   -1.1007    3.3643 C.ar      1 <0>         0.2446
     26 C19         0.5286   -1.1330    2.2301 C.ar      1 <0>        -0.6937
     27 C20         0.8866   -0.4073    1.1113 C.ar      1 <0>        -0.0362
     28 S2         -0.9410   -2.1050    2.2165 S.o2      1 <0>         2.7046
     29 O5         -0.6012   -3.3467    1.6148 O.2       1 <0>        -1.0608
     30 O6         -1.4977   -2.0178    3.5211 O.2       1 <0>        -1.0616
     31 N3          0.9689   -1.8400    4.4963 N.pl3     1 <0>        -0.8835
     32 H1          7.7508   -3.6884   -1.2661 H         1 <0>         0.1327
     33 H2          9.7510   -2.2632   -1.2217 H         1 <0>         0.1313
     34 H3          9.5472    0.1543   -0.8128 H         1 <0>         0.1395
     35 H4          5.5207   -2.7143   -0.9054 H         1 <0>         0.1432
     36 H5          2.4554    3.7124    0.3934 H         1 <0>         0.1512
     37 H6          7.7212    4.0847   -0.4130 H         1 <0>         0.4123
     38 H7          6.9258    5.1432    0.6212 H         1 <0>         0.4035
     39 H8          1.8560    1.0613   -0.8084 H         1 <0>         0.4071
     40 H9          3.7395    0.9978    2.2700 H         1 <0>         0.1122
     41 H10         3.1060   -0.3026    4.2602 H         1 <0>         0.1135
     42 H11         0.2656   -0.4351    0.2281 H         1 <0>         0.1295
     43 H12         1.5264   -1.8148    5.2897 H         1 <0>         0.3882
     44 H13         0.1617   -2.3777    4.4876 H         1 <0>         0.4058
     45 O7          3.0172    6.2112    0.0137 O.3       1 <0>        -1.0687
     46 O8         -1.9243   -1.4211    1.2774 O.3       1 <0>        -1.0805
@<TRIPOS>BOND
     1    1    6 ar
     2    1    2 ar
     3    1   32 1
     4    2    3 ar
     5    2   33 1
     6    3    4 ar
     7    3   34 1
     8    4   15 1
     9    4    5 ar
    10    5    6 ar
    11    5    7 1
    12    6   35 1
    13    7    8 2
    14    7    9 1
    15    9   14 ar
    16    9   10 ar
    17   10   11 ar
    18   10   21 1
    19   11   12 ar
    20   11   36 1
    21   12   13 ar
    22   12   18 1
    23   13   14 ar
    24   13   17 1
    25   14   15 1
    26   15   16 2
    27   17   37 1
    28   17   38 1
    29   18   19 2
    30   18   20 2
    31   18   45 1
    32   21   22 1
    33   21   39 1
    34   22   27 ar
    35   22   23 ar
    36   23   24 ar
    37   23   40 1
    38   24   25 ar
    39   24   41 1
    40   25   26 ar
    41   25   31 1
    42   26   27 ar
    43   26   28 1
    44   27   42 1
    45   28   29 2
    46   28   30 2
    47   28   46 1
    48   31   43 1
    49   31   44 1
@<TRIPOS>MOLECULE
ZINC31291954
   46    49     0     0     0
SMALL
USER_CHARGES
1-amino-4-(3-amino-4-sulfo-anilino)-9,10-dioxo-anthracene-2-sulfonic acid
@<TRIPOS>ATOM
      1 C1         -2.3547    0.0071    0.6206 C.ar      1 <0>        -0.1040
      2 C2         -2.3559    1.3865    0.7282 C.ar      1 <0>        -0.1090
      3 C3         -1.1676    2.0930    0.6920 C.ar      1 <0>        -0.0746
      4 C4          0.0383    1.4147    0.5346 C.ar      1 <0>        -0.1105
      5 C5          0.0395    0.0129    0.4252 C.ar      1 <0>        -0.1062
      6 C6         -1.1658   -0.6829    0.4695 C.ar      1 <0>        -0.0724
      7 C7          1.3153   -0.7154    0.2645 C.2       1 <0>         0.4216
      8 O1          1.3168   -1.9279    0.1692 O.2       1 <0>        -0.3970
      9 C8          2.5829    0.0287    0.2197 C.ar      1 <0>        -0.0475
     10 C9          3.7974   -0.6496    0.0687 C.ar      1 <0>         0.1187
     11 C10         4.9955    0.0697    0.0286 C.ar      1 <0>         0.0526
     12 C11         4.9941    1.4296    0.1344 C.ar      1 <0>        -0.7227
     13 C12         3.7946    2.1313    0.2860 C.ar      1 <0>         0.3644
     14 C13         2.5817    1.4356    0.3296 C.ar      1 <0>        -0.2614
     15 C14         1.3126    2.1616    0.4886 C.2       1 <0>         0.4536
     16 O2          1.3120    3.3741    0.5826 O.2       1 <0>        -0.4722
     17 N1          3.8070    3.5133    0.3933 N.pl3     1 <0>        -0.8615
     18 S1          6.5192    2.3103    0.0800 S.o2      1 <0>         2.6979
     19 O3          6.8341    2.4927   -1.2936 O.2       1 <0>        -1.0429
     20 O4          6.3915    3.3997    0.9835 O.2       1 <0>        -1.0513
     21 O5          7.5895    1.3927    0.6536 O.3       1 <0>        -1.0682
     22 N2          3.8126   -2.0319   -0.0399 N.pl3     1 <0>        -0.6952
     23 C15         3.5328   -2.6391   -1.2662 C.ar      1 <0>         0.3050
     24 C16         3.3537   -1.8602   -2.4037 C.ar      1 <0>        -0.2741
     25 C17         3.0822   -2.4603   -3.6177 C.ar      1 <0>         0.0597
     26 C18         2.9763   -3.8354   -3.7039 C.ar      1 <0>        -0.7908
     27 C19         3.1489   -4.6197   -2.5699 C.ar      1 <0>         0.3378
     28 C20         3.4276   -4.0204   -1.3495 C.ar      1 <0>        -0.2917
     29 N3          3.0426   -6.0095   -2.6582 N.pl3     1 <0>        -0.8981
     30 S2          2.6225   -4.5953   -5.2538 S.o2      1 <0>         2.7110
     31 O6          3.8628   -4.7246   -5.9352 O.2       1 <0>        -1.0646
     32 O7          1.7850   -5.7096   -4.9780 O.2       1 <0>        -1.0665
     33 O8          1.7855   -3.6103   -6.0573 O.3       1 <0>        -1.0875
     34 H1         -3.2885   -0.5344    0.6551 H         1 <0>         0.1329
     35 H2         -3.2906    1.9146    0.8459 H         1 <0>         0.1319
     36 H3         -1.1756    3.1696    0.7766 H         1 <0>         0.1401
     37 H4         -1.1721   -1.7597    0.3864 H         1 <0>         0.1420
     38 H5          5.9314   -0.4566   -0.0877 H         1 <0>         0.1476
     39 H6          2.8624    4.0642    0.5126 H         1 <0>         0.4298
     40 H7          4.7615    4.0591    0.3592 H         1 <0>         0.4287
     41 H8          4.0450   -2.6502    0.8397 H         1 <0>         0.4220
     42 H9          3.4314   -0.7849   -2.3389 H         1 <0>         0.1099
     43 H10         2.9479   -1.8532   -4.5008 H         1 <0>         0.1242
     44 H11         3.5618   -4.6277   -0.4665 H         1 <0>         0.1106
     45 H12         3.1794   -6.6297   -1.7601 H         1 <0>         0.4007
     46 H13         2.8221   -6.4839   -3.6259 H         1 <0>         0.4274
@<TRIPOS>BOND
     1    1    6 ar
     2    1    2 ar
     3    1   34 1
     4    2    3 ar
     5    2   35 1
     6    3    4 ar
     7    3   36 1
     8    4   15 1
     9    4    5 ar
    10    5    6 ar
    11    5    7 1
    12    6   37 1
    13    7    8 2
    14    7    9 1
    15    9   14 ar
    16    9   10 ar
    17   10   11 ar
    18   10   22 1
    19   11   12 ar
    20   11   38 1
    21   12   13 ar
    22   12   18 1
    23   13   14 ar
    24   13   17 1
    25   14   15 1
    26   15   16 2
    27   17   39 1
    28   17   40 1
    29   18   19 2
    30   18   20 2
    31   18   21 1
    32   22   23 1
    33   22   41 1
    34   23   28 ar
    35   23   24 ar
    36   24   25 ar
    37   24   42 1
    38   25   26 ar
    39   25   43 1
    40   26   27 ar
    41   26   30 1
    42   27   28 ar
    43   27   29 1
    44   28   44 1
    45   29   45 1
    46   29   46 1
    47   30   31 2
    48   30   32 2
    49   30   33 1
@<TRIPOS>MOLECULE
ZINC00894558
   45    48     0     0     0
SMALL
USER_CHARGES
[4-(8-ethyl-7-thia-3,5-diazabicyclo[4.3.0]nona-2,4,8,10-tetraen-2-yl)piperazin-1-yl]-phenyl-methanone
@<TRIPOS>ATOM
      1 C1          4.3281    2.2515    1.3740 C.3       1 <0>        -0.1507
      2 C2          2.9672    2.0806    2.0521 C.3       1 <0>        -0.0438
      3 C3          1.9071    1.8635    1.0032 C.2       1 <0>        -0.1184
      4 C4          1.4809    0.7040    0.4812 C.2       1 <0>        -0.1173
      5 C5          0.4376    0.7222   -0.5292 C.ar      1 <0>        -0.1574
      6 C6         -0.1742   -0.3573   -1.2245 C.ar      1 <0>         0.3953
      7 N1         -1.1172   -0.0987   -2.1157 N.ar      1 <0>        -0.5541
      8 C7         -1.5128    1.1330   -2.3841 C.ar      1 <0>         0.3283
      9 N2         -0.9834    2.1744   -1.7723 N.ar      1 <0>        -0.4805
     10 C8         -0.0371    2.0077   -0.8694 C.ar      1 <0>         0.1165
     11 S1          0.9208    3.0870    0.1610 S.3       1 <0>         0.1082
     12 N3          0.2116   -1.6613   -0.9717 N.pl3     1 <0>        -0.4868
     13 C9          0.8009   -2.2773   -2.1681 C.3       1 <0>         0.0452
     14 C10         1.3773   -3.6489   -1.8011 C.3       1 <0>         0.0923
     15 N4          0.3222   -4.4400   -1.1498 N.am      1 <0>        -0.6106
     16 C11        -0.4095   -3.8337   -0.0272 C.3       1 <0>         0.1195
     17 C12        -0.9155   -2.4548   -0.4640 C.3       1 <0>         0.0471
     18 C13         0.0338   -5.6876   -1.5703 C.2       1 <0>         0.5636
     19 O1         -0.9118   -6.2857   -1.0951 O.2       1 <0>        -0.5310
     20 C14         0.8674   -6.3287   -2.6094 C.ar      1 <0>        -0.1349
     21 C15         2.2058   -5.9619   -2.7592 C.ar      1 <0>        -0.1040
     22 C16         2.9796   -6.5678   -3.7274 C.ar      1 <0>        -0.1269
     23 C17         2.4288   -7.5292   -4.5561 C.ar      1 <0>        -0.0935
     24 C18         1.1013   -7.8933   -4.4166 C.ar      1 <0>        -0.1248
     25 C19         0.3180   -7.2993   -3.4487 C.ar      1 <0>        -0.0612
     26 H1          4.5631    1.3552    0.7999 H         1 <0>         0.0603
     27 H2          4.2958    3.1125    0.7063 H         1 <0>         0.0597
     28 H3          5.0949    2.4085    2.1326 H         1 <0>         0.0680
     29 H4          2.7323    2.9770    2.6261 H         1 <0>         0.0851
     30 H5          2.9995    1.2197    2.7197 H         1 <0>         0.0930
     31 H6          1.9081   -0.2323    0.8085 H         1 <0>         0.1495
     32 H7         -2.2836    1.2907   -3.1239 H         1 <0>         0.2090
     33 H8          0.0319   -2.3982   -2.9311 H         1 <0>         0.0612
     34 H9          1.5969   -1.6389   -2.5513 H         1 <0>         0.0901
     35 H10         2.2157   -3.5224   -1.1162 H         1 <0>         0.0846
     36 H11         1.7148   -4.1605   -2.7025 H         1 <0>         0.1166
     37 H12         0.2572   -3.7250    0.8283 H         1 <0>         0.0808
     38 H13        -1.2554   -4.4646    0.2457 H         1 <0>         0.1044
     39 H14        -1.3643   -1.9452    0.3887 H         1 <0>         0.0897
     40 H15        -1.6606   -2.5733   -1.2508 H         1 <0>         0.0615
     41 H16         2.6357   -5.2084   -2.1159 H         1 <0>         0.1419
     42 H17         4.0165   -6.2881   -3.8415 H         1 <0>         0.1309
     43 H18         3.0377   -7.9972   -5.3154 H         1 <0>         0.1287
     44 H19         0.6774   -8.6444   -5.0666 H         1 <0>         0.1314
     45 H20        -0.7181   -7.5844   -3.3408 H         1 <0>         0.1337
@<TRIPOS>BOND
     1    1    2 1
     2    1   26 1
     3    1   27 1
     4    1   28 1
     5    2    3 1
     6    2   29 1
     7    2   30 1
     8    3   11 1
     9    3    4 2
    10    4    5 1
    11    4   31 1
    12    5   10 ar
    13    5    6 ar
    14    6    7 ar
    15    6   12 1
    16    7    8 ar
    17    8    9 ar
    18    8   32 1
    19    9   10 ar
    20   10   11 1
    21   12   17 1
    22   12   13 1
    23   13   14 1
    24   13   33 1
    25   13   34 1
    26   14   15 1
    27   14   35 1
    28   14   36 1
    29   15   16 1
    30   15   18 am
    31   16   17 1
    32   16   37 1
    33   16   38 1
    34   17   39 1
    35   17   40 1
    36   18   19 2
    37   18   20 1
    38   20   25 ar
    39   20   21 ar
    40   21   22 ar
    41   21   41 1
    42   22   23 ar
    43   22   42 1
    44   23   24 ar
    45   23   43 1
    46   24   25 ar
    47   24   44 1
    48   25   45 1
