@<TRIPOS>MOLECULE
ZINC00153920
   23    24     0     0     0
SMALL
USER_CHARGES
2-(7-hydroxy-2-oxo-chromen-4-yl)acetic acid
@<TRIPOS>ATOM
      1 C1         -1.2355    2.0276    0.0189 C.ar      1 <0>        -0.1677
      2 C2         -1.2707    3.3921    0.0320 C.ar      1 <0>        -0.0261
      3 C3         -0.0747    4.1185    0.0240 C.ar      1 <0>        -0.1398
      4 C4         -0.0821    5.5829    0.0324 C.2       1 <0>         0.0852
      5 C5          1.1119    6.2307    0.0249 C.2       1 <0>        -0.2755
      6 C6          2.3116    5.4900    0.0095 C.2       1 <0>         0.5186
      7 O1          3.3752    6.0835    0.0029 O.2       1 <0>        -0.4816
      8 O2          2.3117    4.1478    0.0022 O.3       1 <0>        -0.2758
      9 C7          1.1600    3.4429    0.0090 C.ar      1 <0>         0.1605
     10 C8          1.1774    2.0566    0.0019 C.ar      1 <0>        -0.1677
     11 C9         -0.0163    1.3533    0.0095 C.ar      1 <0>         0.1530
     12 O3          0.0021   -0.0041    0.0020 O.3       1 <0>        -0.4943
     13 C10        -1.3790    6.3503    0.0484 C.3       1 <0>        -0.1458
     14 C11        -1.8613    6.4919    1.4691 C.2       1 <0>         0.4704
     15 O4         -1.2180    6.0183    2.3756 O.co2     1 <0>        -0.6254
     16 H1         -2.1586    1.4671    0.0203 H         1 <0>         0.1390
     17 H2         -2.2186    3.9094    0.0431 H         1 <0>         0.1451
     18 H3          1.1422    7.3103    0.0312 H         1 <0>         0.1589
     19 H4          2.1184    1.5267   -0.0093 H         1 <0>         0.1460
     20 H5          0.0158   -0.4021    0.8832 H         1 <0>         0.3962
     21 H6         -1.2213    7.3392   -0.3821 H         1 <0>         0.0939
     22 H7         -2.1257    5.8140   -0.5371 H         1 <0>         0.0908
     23 O5         -3.0057    7.1442    1.7274 O.co2     1 <0>        -0.7578
@<TRIPOS>BOND
     1    1   11 ar
     2    1    2 ar
     3    1   16 1
     4    2    3 ar
     5    2   17 1
     6    3    9 ar
     7    3    4 1
     8    4    5 2
     9    4   13 1
    10    5    6 1
    11    5   18 1
    12    6    7 2
    13    6    8 1
    14    8    9 1
    15    9   10 ar
    16   10   11 ar
    17   10   19 1
    18   11   12 1
    19   12   20 1
    20   13   14 1
    21   13   21 1
    22   13   22 1
    23   14   15 2
    24   14   23 1
@<TRIPOS>MOLECULE
ZINC03935700
   57    61     0     0     0
SMALL
USER_CHARGES
[hydroxy-(methoxymethyl)-dimethyl-dioxo-BLAHyl] acetate
@<TRIPOS>ATOM
      1 C1         -0.9932    1.0658    3.6675 C.3       1 <0>        -0.1489
      2 C2         -0.4155    0.6979    2.3252 C.2       1 <0>         0.4600
      3 O1          0.2120   -0.3268    2.1979 O.2       1 <0>        -0.5026
      4 O2         -0.5980    1.5084    1.2710 O.3       1 <0>        -0.3522
      5 C3         -0.0128    1.0903    0.0080 C.3       1 <0>         0.1246
      6 H1          0.0021   -0.0041    0.0020 H         1 <0>         0.1074
      7 C4          1.4335    1.5813   -0.0031 C.3       1 <0>        -0.1211
      8 C5          1.8826    1.7610   -1.4367 C.3       1 <0>        -0.0498
      9 C6          0.9889    2.8853   -2.0137 C.3       1 <0>        -0.0565
     10 H2          1.0243    3.7570   -1.3516 H         1 <0>         0.1001
     11 C7          1.6959    3.2206   -3.3256 C.3       1 <0>        -0.1004
     12 C8          3.2001    3.1515   -2.9465 C.3       1 <0>        -0.1586
     13 C9          3.2874    2.3304   -1.6373 C.3       1 <0>         0.1146
     14 H3          3.5516    2.9739   -0.7987 H         1 <0>         0.0640
     15 O3          4.2336    1.2692   -1.7707 O.3       1 <0>        -0.5568
     16 C10        -0.4177    2.3898   -2.0902 C.2       1 <0>        -0.1084
     17 C11        -0.8750    1.5613   -1.1390 C.2       1 <0>        -0.0254
     18 C12        -2.2775    1.0043   -1.1985 C.3       1 <0>        -0.0008
     19 C13        -3.0897    1.7596   -2.2125 C.2       1 <0>        -0.1297
     20 C14        -4.5067    1.6838   -2.2747 C.2       1 <0>        -0.2717
     21 C15        -4.8531    2.3923   -3.3765 C.2       1 <0>         0.1083
     22 O4         -3.7279    2.9034   -3.9332 O.3       1 <0>        -0.1276
     23 C16        -2.6640    2.5730   -3.1992 C.2       1 <0>        -0.0589
     24 C17        -1.2238    2.8519   -3.2527 C.2       1 <0>         0.4729
     25 O5         -0.7256    3.4344   -4.2026 O.2       1 <0>        -0.4052
     26 C18        -5.1797    0.9247   -1.2041 C.2       1 <0>         0.5692
     27 O6         -6.3316    0.5422   -1.3133 O.2       1 <0>        -0.4447
     28 O7         -4.4543    0.6726   -0.0859 O.3       1 <0>        -0.3361
     29 C19        -3.0845    1.1150    0.0902 C.3       1 <0>         0.1424
     30 H4         -2.6257    0.5254    0.8664 H         1 <0>         0.1333
     31 C20        -3.1479    2.5856    0.5106 C.3       1 <0>         0.0366
     32 O8         -3.8012    2.6913    1.7771 O.3       1 <0>        -0.3752
     33 C21        -3.9132    4.0303    2.2634 C.3       1 <0>         0.0297
     34 C22        -2.2201   -0.4689   -1.6236 C.3       1 <0>        -0.1423
     35 C23         1.7404    0.4620   -2.2274 C.3       1 <0>        -0.1328
     36 H5         -1.5213    2.0160    3.5877 H         1 <0>         0.0948
     37 H6         -1.6879    0.2899    3.9891 H         1 <0>         0.1100
     38 H7         -0.1882    1.1577    4.3967 H         1 <0>         0.1072
     39 H8          1.5005    2.5340    0.5289 H         1 <0>         0.0849
     40 H9          2.0740    0.8509    0.4989 H         1 <0>         0.0909
     41 H10         1.4558    2.4969   -4.1037 H         1 <0>         0.0766
     42 H11         1.4314    4.2282   -3.6572 H         1 <0>         0.0784
     43 H12         3.7658    2.6588   -3.7380 H         1 <0>         0.0790
     44 H13         3.5919    4.1574   -2.7840 H         1 <0>         0.0719
     45 H14         5.1440    1.5681   -1.9006 H         1 <0>         0.3798
     46 H15        -5.8568    2.5245   -3.7467 H         1 <0>         0.2349
     47 H16        -2.1367    2.9850    0.5889 H         1 <0>         0.0830
     48 H17        -3.7058    3.1528   -0.2345 H         1 <0>         0.0538
     49 H18        -2.9179    4.4597    2.3781 H         1 <0>         0.0446
     50 H19        -4.4870    4.6275    1.5547 H         1 <0>         0.0405
     51 H20        -4.4201    4.0252    3.2283 H         1 <0>         0.0917
     52 H21        -1.7546   -0.5457   -2.6062 H         1 <0>         0.0777
     53 H22        -1.6340   -1.0337   -0.8987 H         1 <0>         0.0814
     54 H23        -3.2311   -0.8739   -1.6679 H         1 <0>         0.0765
     55 H24         0.6945    0.1553   -2.2375 H         1 <0>         0.0488
     56 H25         2.0826    0.6199   -3.2502 H         1 <0>         0.0649
     57 H26         2.3427   -0.3164   -1.7589 H         1 <0>         0.0712
@<TRIPOS>BOND
     1    1    2 1
     2    1   36 1
     3    1   37 1
     4    1   38 1
     5    2    3 2
     6    2    4 1
     7    4    5 1
     8    5    6 1
     9    5   17 1
    10    5    7 1
    11    7    8 1
    12    7   39 1
    13    7   40 1
    14    8   13 1
    15    8    9 1
    16    8   35 1
    17    9   10 1
    18    9   11 1
    19    9   16 1
    20   11   12 1
    21   11   41 1
    22   11   42 1
    23   12   13 1
    24   12   43 1
    25   12   44 1
    26   13   14 1
    27   13   15 1
    28   15   45 1
    29   16   24 1
    30   16   17 2
    31   17   18 1
    32   18   29 1
    33   18   19 1
    34   18   34 1
    35   19   23 2
    36   19   20 1
    37   20   21 2
    38   20   26 1
    39   21   22 1
    40   21   46 1
    41   22   23 1
    42   23   24 1
    43   24   25 2
    44   26   27 2
    45   26   28 1
    46   28   29 1
    47   29   30 1
    48   29   31 1
    49   31   32 1
    50   31   47 1
    51   31   48 1
    52   32   33 1
    53   33   49 1
    54   33   50 1
    55   33   51 1
    56   34   52 1
    57   34   53 1
    58   34   54 1
    59   35   55 1
    60   35   56 1
    61   35   57 1
@<TRIPOS>MOLECULE
ZINC14975141
   57    61     0     0     0
SMALL
USER_CHARGES
[hydroxy-(methoxymethyl)-dimethyl-dioxo-BLAHyl] acetate
@<TRIPOS>ATOM
      1 C1          1.6451    7.4746   -3.1598 C.3       1 <0>        -0.1507
      2 C2          0.6468    6.3672   -2.9402 C.2       1 <0>         0.4598
      3 O1         -0.5372    6.6055   -2.9753 O.2       1 <0>        -0.5003
      4 O2          1.0731    5.1162   -2.7057 O.3       1 <0>        -0.3505
      5 C3          0.0576    4.1022   -2.5038 C.3       1 <0>         0.1199
      6 H1         -0.8402    4.4138   -3.0492 H         1 <0>         0.1154
      7 C4         -0.2596    4.0442   -1.0145 C.3       1 <0>        -0.1231
      8 C5         -1.3302    2.9847   -0.7582 C.3       1 <0>        -0.0415
      9 C6         -0.8107    1.6196   -1.2029 C.3       1 <0>        -0.0427
     10 H2         -1.6571    0.9525   -1.3974 H         1 <0>         0.1050
     11 C7         -0.0127    1.0867    0.0080 C.3       1 <0>        -0.1147
     12 C8         -0.7909    1.6076    1.2331 C.3       1 <0>        -0.1566
     13 C9         -1.5302    2.8735    0.7715 C.3       1 <0>         0.1109
     14 H3         -1.1093    3.7516    1.2636 H         1 <0>         0.0633
     15 O3         -2.9228    2.7676    1.0745 O.3       1 <0>        -0.5578
     16 C10         0.0803    1.6422   -2.4152 C.2       1 <0>        -0.1201
     17 C11         0.4950    2.7523   -3.0247 C.2       1 <0>        -0.0266
     18 C12         1.3328    2.7288   -4.2777 C.3       1 <0>         0.0065
     19 C13         1.8348    1.3327   -4.5257 C.2       1 <0>        -0.1276
     20 C14         2.8689    1.0319   -5.4499 C.2       1 <0>        -0.2738
     21 C15         2.9261   -0.3202   -5.4986 C.2       1 <0>         0.1083
     22 O4          2.0351   -0.8221   -4.6097 O.3       1 <0>        -0.1285
     23 C16         1.4117    0.1771   -3.9784 C.2       1 <0>        -0.0599
     24 C17         0.4223    0.2677   -2.9033 C.2       1 <0>         0.4661
     25 O5         -0.0989   -0.7279   -2.4253 O.2       1 <0>        -0.4107
     26 C18         3.5753    2.1784   -6.0506 C.2       1 <0>         0.5699
     27 O6          4.2518    2.0606   -7.0574 O.2       1 <0>        -0.4464
     28 O7          3.4303    3.3698   -5.4257 O.3       1 <0>        -0.3387
     29 C19         2.5865    3.5919   -4.2704 C.3       1 <0>         0.1431
     30 H4          2.3202    4.6389   -4.2765 H         1 <0>         0.1444
     31 C20         3.4113    3.2676   -3.0266 C.3       1 <0>         0.0429
     32 O8          4.5295    4.1543   -2.9520 O.3       1 <0>        -0.3735
     33 C21         5.3709    3.9345   -1.8181 C.3       1 <0>         0.0302
     34 C22         0.4554    3.1432   -5.4707 C.3       1 <0>        -0.1396
     35 C23        -2.6539    3.3354   -1.4463 C.3       1 <0>        -0.1285
     36 H5          2.2631    7.2401   -4.0265 H         1 <0>         0.1051
     37 H6          1.1160    8.4116   -3.3336 H         1 <0>         0.1054
     38 H7          2.2783    7.5731   -2.2780 H         1 <0>         0.1044
     39 H8         -0.6223    5.0201   -0.6833 H         1 <0>         0.0870
     40 H9          0.6466    3.7947   -0.4591 H         1 <0>         0.0837
     41 H10         0.0021   -0.0041    0.0020 H         1 <0>         0.0808
     42 H11         1.0029    1.4803    0.0004 H         1 <0>         0.0687
     43 H12        -1.5058    0.8567    1.5701 H         1 <0>         0.0810
     44 H13        -0.0984    1.8503    2.0395 H         1 <0>         0.0733
     45 H14        -3.1153    2.6946    2.0193 H         1 <0>         0.3791
     46 H15         3.5746   -0.8988   -6.1398 H         1 <0>         0.2355
     47 H16         2.7917    3.3885   -2.1380 H         1 <0>         0.0753
     48 H17         3.7667    2.2387   -3.0844 H         1 <0>         0.0522
     49 H18         5.7670    2.9195   -1.8509 H         1 <0>         0.0404
     50 H19         6.1956    4.6470   -1.8342 H         1 <0>         0.0916
     51 H20         4.7920    4.0693   -0.9045 H         1 <0>         0.0431
     52 H21         0.0681    4.1485   -5.3050 H         1 <0>         0.0785
     53 H22         1.0522    3.1295   -6.3827 H         1 <0>         0.0762
     54 H23        -0.3760    2.4454   -5.5700 H         1 <0>         0.0767
     55 H24        -3.4032    2.5840   -1.1970 H         1 <0>         0.0735
     56 H25        -2.9928    4.3136   -1.1052 H         1 <0>         0.0646
     57 H26        -2.5072    3.3579   -2.5262 H         1 <0>         0.0500
@<TRIPOS>BOND
     1    1    2 1
     2    1   36 1
     3    1   37 1
     4    1   38 1
     5    2    3 2
     6    2    4 1
     7    4    5 1
     8    5    6 1
     9    5   17 1
    10    5    7 1
    11    7    8 1
    12    7   39 1
    13    7   40 1
    14    8   13 1
    15    8    9 1
    16    8   35 1
    17    9   10 1
    18    9   11 1
    19    9   16 1
    20   11   12 1
    21   11   41 1
    22   11   42 1
    23   12   13 1
    24   12   43 1
    25   12   44 1
    26   13   14 1
    27   13   15 1
    28   15   45 1
    29   16   24 1
    30   16   17 2
    31   17   18 1
    32   18   29 1
    33   18   19 1
    34   18   34 1
    35   19   23 2
    36   19   20 1
    37   20   21 2
    38   20   26 1
    39   21   22 1
    40   21   46 1
    41   22   23 1
    42   23   24 1
    43   24   25 2
    44   26   27 2
    45   26   28 1
    46   28   29 1
    47   29   30 1
    48   29   31 1
    49   31   32 1
    50   31   47 1
    51   31   48 1
    52   32   33 1
    53   33   49 1
    54   33   50 1
    55   33   51 1
    56   34   52 1
    57   34   53 1
    58   34   54 1
    59   35   55 1
    60   35   56 1
    61   35   57 1
@<TRIPOS>MOLECULE
ZINC01619592
   55    59     0     0     0
SMALL
USER_CHARGES

@<TRIPOS>ATOM
      1 C1         -0.0184    1.5028    0.0103 C.3       1 <0>        -0.1511
      2 C2          0.0021   -0.0041    0.0020 C.2       1 <0>         0.4597
      3 O1          1.0565   -0.5939   -0.0112 O.2       1 <0>        -0.4999
      4 O2         -1.1511   -0.6910    0.0093 O.3       1 <0>        -0.3474
      5 C3         -1.0568   -2.1201    0.0008 C.3       1 <0>         0.1219
      6 H1         -0.1268   -2.3839    0.5135 H         1 <0>         0.1078
      7 C4         -0.9300   -2.5524   -1.4583 C.3       1 <0>        -0.1184
      8 C5         -1.5070   -3.9418   -1.6157 C.3       1 <0>        -0.1187
      9 C6         -3.0076   -3.8238   -1.2599 C.3       1 <0>        -0.0498
     10 H2         -3.4688   -3.0269   -1.8517 H         1 <0>         0.1063
     11 C7         -3.5424   -5.1804   -1.7235 C.3       1 <0>        -0.1009
     12 C8         -2.7629   -5.4191   -3.0462 C.3       1 <0>        -0.1830
     13 C9         -1.5465   -4.4997   -3.0127 C.2       1 <0>         0.3855
     14 O3         -0.7805   -4.2605   -3.9130 O.2       1 <0>        -0.4254
     15 C10        -3.1349   -3.4967    0.1921 C.2       1 <0>        -0.1113
     16 C11        -2.2157   -2.7096    0.7678 C.2       1 <0>        -0.0220
     17 C12        -2.2470   -2.4186    2.2520 C.3       1 <0>        -0.0027
     18 C13        -3.5419   -2.8944    2.8428 C.2       1 <0>        -0.1255
     19 C14        -4.0137   -2.4591    4.1090 C.2       1 <0>        -0.2743
     20 C15        -5.1338   -3.1850    4.3420 C.2       1 <0>         0.1107
     21 O4         -5.3667   -3.9750    3.2644 O.3       1 <0>        -0.1272
     22 C16        -4.4651   -3.7201    2.3152 C.2       1 <0>        -0.0593
     23 C17        -4.2994   -4.0888    0.9041 C.2       1 <0>         0.4739
     24 O5         -5.0852   -4.8388    0.3501 O.2       1 <0>        -0.4050
     25 C18        -3.2587   -1.3792    4.7707 C.2       1 <0>         0.5710
     26 O6         -3.4416   -1.0831    5.9367 O.2       1 <0>        -0.4406
     27 O7         -2.3673   -0.7035    4.0022 O.3       1 <0>        -0.3342
     28 C19        -2.1782   -0.9381    2.6104 C.3       1 <0>         0.1418
     29 H3         -1.2274   -0.5290    2.3161 H         1 <0>         0.1331
     30 C20        -3.3080   -0.2057    1.8834 C.3       1 <0>         0.0325
     31 O8         -3.1902    1.1997    2.1137 O.3       1 <0>        -0.3752
     32 C21        -4.2027    1.9802    1.4751 C.3       1 <0>         0.0299
     33 C22        -1.0932   -3.1555    2.9462 C.3       1 <0>        -0.1410
     34 C23        -0.7898   -4.9340   -0.7021 C.3       1 <0>        -0.1431
     35 H4          1.0042    1.8801    0.0026 H         1 <0>         0.1053
     36 H5         -0.5455    1.8639   -0.8728 H         1 <0>         0.1024
     37 H6         -0.5286    1.8543    0.9071 H         1 <0>         0.1090
     38 H7         -1.4691   -1.8509   -2.0999 H         1 <0>         0.0889
     39 H8          0.1251   -2.5564   -1.7479 H         1 <0>         0.0943
     40 H9         -3.3312   -5.9617   -0.9953 H         1 <0>         0.0820
     41 H10        -4.6154   -5.1243   -1.9164 H         1 <0>         0.0922
     42 H11        -2.4449   -6.4590   -3.1085 H         1 <0>         0.1059
     43 H12        -3.3960   -5.1755   -3.9005 H         1 <0>         0.1025
     44 H13        -5.7345   -3.1423    5.2384 H         1 <0>         0.2359
     45 H14        -3.2413   -0.4054    0.8139 H         1 <0>         0.0819
     46 H15        -4.2692   -0.5562    2.2593 H         1 <0>         0.0526
     47 H16        -4.0433    3.0351    1.6985 H         1 <0>         0.0920
     48 H17        -4.1546    1.8258    0.3972 H         1 <0>         0.0450
     49 H18        -5.1825    1.6750    1.8425 H         1 <0>         0.0405
     50 H19        -0.1439   -2.8172    2.5309 H         1 <0>         0.0813
     51 H20        -1.1181   -2.9442    4.0152 H         1 <0>         0.0779
     52 H21        -1.1983   -4.2284    2.7854 H         1 <0>         0.0788
     53 H22        -0.9157   -4.6281    0.3365 H         1 <0>         0.0689
     54 H23        -1.2137   -5.9285   -0.8418 H         1 <0>         0.0723
     55 H24         0.2717   -4.9535   -0.9490 H         1 <0>         0.0724
@<TRIPOS>BOND
     1    1    2 1
     2    1   35 1
     3    1   36 1
     4    1   37 1
     5    2    3 2
     6    2    4 1
     7    4    5 1
     8    5    6 1
     9    5   16 1
    10    5    7 1
    11    7    8 1
    12    7   38 1
    13    7   39 1
    14    8   13 1
    15    8    9 1
    16    8   34 1
    17    9   10 1
    18    9   11 1
    19    9   15 1
    20   11   12 1
    21   11   40 1
    22   11   41 1
    23   12   13 1
    24   12   42 1
    25   12   43 1
    26   13   14 2
    27   15   23 1
    28   15   16 2
    29   16   17 1
    30   17   28 1
    31   17   18 1
    32   17   33 1
    33   18   22 2
    34   18   19 1
    35   19   20 2
    36   19   25 1
    37   20   21 1
    38   20   44 1
    39   21   22 1
    40   22   23 1
    41   23   24 2
    42   25   26 2
    43   25   27 1
    44   27   28 1
    45   28   29 1
    46   28   30 1
    47   30   31 1
    48   30   45 1
    49   30   46 1
    50   31   32 1
    51   32   47 1
    52   32   48 1
    53   32   49 1
    54   33   50 1
    55   33   51 1
    56   33   52 1
    57   34   53 1
    58   34   54 1
    59   34   55 1
@<TRIPOS>MOLECULE
ZINC03869685
   32    34     0     0     0
SMALL
USER_CHARGES

@<TRIPOS>ATOM
      1 C1          0.9741   -0.2755   -0.9644 C.ar      1 <0>        -0.0748
      2 C2          2.1569    0.4329   -0.9701 C.ar      1 <0>        -0.1346
      3 C3          2.3856    1.4156   -0.0177 C.ar      1 <0>         0.1032
      4 C4          1.4203    1.6918    0.9495 C.ar      1 <0>         0.0788
      5 C5          0.2328    0.9863    0.9617 C.ar      1 <0>        -0.0762
      6 C6          0.0021   -0.0041    0.0020 C.ar      1 <0>        -0.0447
      7 C7         -1.2637   -0.7605    0.0100 C.2       1 <0>         0.1350
      8 C8         -2.4363   -0.0759    0.1235 C.2       1 <0>        -0.0429
      9 C9         -3.6628   -0.7894    0.1327 C.2       1 <0>         0.4011
     10 O1         -4.7327   -0.2102    0.2323 O.2       1 <0>        -0.4484
     11 C10        -3.5946   -2.2549    0.0170 C.ar      1 <0>        -0.2690
     12 C11        -4.7561   -3.0387    0.0170 C.ar      1 <0>         0.2244
     13 C12        -4.6504   -4.4123   -0.0941 C.ar      1 <0>        -0.2081
     14 C13        -3.3994   -5.0103   -0.2044 C.ar      1 <0>         0.2000
     15 C14        -2.2463   -4.2416   -0.2047 C.ar      1 <0>        -0.1854
     16 C15        -2.3316   -2.8618   -0.0952 C.ar      1 <0>         0.1876
     17 O2         -1.2182   -2.0992   -0.1003 O.3       1 <0>        -0.1970
     18 O3         -3.3070   -6.3605   -0.3125 O.3       1 <0>        -0.4866
     19 O4         -5.9758   -2.4535    0.1257 O.3       1 <0>        -0.4726
     20 O5         -2.4312    1.2810    0.2275 O.3       1 <0>        -0.4502
     21 O6          1.6480    2.6557    1.8815 O.3       1 <0>        -0.4836
     22 O7          3.5534    2.1101   -0.0273 O.3       1 <0>        -0.4861
     23 H1          0.7971   -1.0371   -1.7094 H         1 <0>         0.1379
     24 H2          2.9075    0.2221   -1.7176 H         1 <0>         0.1421
     25 H3         -0.5155    1.1988    1.7108 H         1 <0>         0.1429
     26 H4         -5.5413   -5.0229   -0.0948 H         1 <0>         0.1515
     27 H5         -1.2805   -4.7174   -0.2903 H         1 <0>         0.1559
     28 H6         -3.3257   -6.6843   -1.2235 H         1 <0>         0.4050
     29 H7         -6.3751   -2.2160   -0.7224 H         1 <0>         0.4036
     30 H8         -3.3120    1.6729    0.3033 H         1 <0>         0.4079
     31 H9          1.3508    3.5370    1.6166 H         1 <0>         0.3905
     32 H10         3.5287    2.9137   -0.5647 H         1 <0>         0.3924
@<TRIPOS>BOND
     1    1    6 ar
     2    1    2 ar
     3    1   23 1
     4    2    3 ar
     5    2   24 1
     6    3    4 ar
     7    3   22 1
     8    4    5 ar
     9    4   21 1
    10    5    6 ar
    11    5   25 1
    12    6    7 1
    13    7   17 1
    14    7    8 2
    15    8    9 1
    16    8   20 1
    17    9   10 2
    18    9   11 1
    19   11   16 ar
    20   11   12 ar
    21   12   13 ar
    22   12   19 1
    23   13   14 ar
    24   13   26 1
    25   14   15 ar
    26   14   18 1
    27   15   16 ar
    28   15   27 1
    29   16   17 1
    30   18   28 1
    31   19   29 1
    32   20   30 1
    33   21   31 1
    34   22   32 1
@<TRIPOS>MOLECULE
ZINC03869685
   31    33     0     0     0
SMALL
USER_CHARGES

@<TRIPOS>ATOM
      1 C1          0.1390    1.1246   -0.8120 C.ar      1 <0>        -0.0626
      2 C2          1.3229    1.8301   -0.8179 C.ar      1 <0>        -0.1333
      3 C3          2.3812    1.4233   -0.0172 C.ar      1 <0>         0.0878
      4 C4          2.2522    0.2984    0.7970 C.ar      1 <0>         0.0757
      5 C5          1.0694   -0.4139    0.8086 C.ar      1 <0>        -0.0997
      6 C6          0.0021   -0.0041    0.0020 C.ar      1 <0>        -0.0194
      7 C7         -1.2620   -0.7597    0.0100 C.2       1 <0>         0.1007
      8 C8         -2.4587   -0.0763    0.1245 C.2       1 <0>        -0.0038
      9 C9         -3.6655   -0.7872    0.1324 C.2       1 <0>         0.3349
     10 C10        -3.6167   -2.1939    0.0219 C.2       1 <0>        -0.3331
     11 C11        -4.8018   -2.9593    0.0240 C.2       1 <0>         0.2664
     12 C12        -4.7326   -4.3182   -0.0844 C.2       1 <0>        -0.3749
     13 C13        -3.4871   -4.9570   -0.1979 C.2       1 <0>         0.3648
     14 O1         -3.4307   -6.2860   -0.3033 O.2       1 <0>        -0.6598
     15 C14        -2.3054   -4.2086   -0.2016 C.2       1 <0>        -0.3143
     16 C15        -2.3616   -2.8325   -0.0921 C.2       1 <0>         0.2118
     17 O2         -1.2290   -2.0988   -0.0996 O.3       1 <0>        -0.2018
     18 O3         -6.0073   -2.3463    0.1339 O.3       1 <0>        -0.4482
     19 O4         -4.8484   -0.1420    0.2437 O.3       1 <0>        -0.5747
     20 O5         -2.4638    1.2803    0.2294 O.3       1 <0>        -0.4649
     21 O6          3.2919   -0.0973    1.5794 O.3       1 <0>        -0.4856
     22 O7          3.5458    2.1225   -0.0269 O.3       1 <0>        -0.4881
     23 H1         -0.6843    1.4460   -1.4327 H         1 <0>         0.1397
     24 H2          1.4276    2.7014   -1.4473 H         1 <0>         0.1381
     25 H3          0.9685   -1.2854    1.4384 H         1 <0>         0.1410
     26 H4         -5.6395   -4.9047   -0.0825 H         1 <0>         0.1180
     27 H5         -1.3506   -4.7057   -0.2895 H         1 <0>         0.1230
     28 H6         -6.7597   -2.9537    0.1258 H         1 <0>         0.3847
     29 H7         -3.3475    1.6656    0.3047 H         1 <0>         0.4058
     30 H8          3.2925    0.2977    2.4620 H         1 <0>         0.3855
     31 H9          3.5825    2.8346    0.6263 H         1 <0>         0.3863
@<TRIPOS>BOND
     1    1    6 ar
     2    1    2 ar
     3    1   23 1
     4    2    3 ar
     5    2   24 1
     6    3    4 ar
     7    3   22 1
     8    4    5 ar
     9    4   21 1
    10    5    6 ar
    11    5   25 1
    12    6    7 1
    13    7   17 1
    14    7    8 2
    15    8    9 1
    16    8   20 1
    17    9   10 2
    18    9   19 1
    19   10   16 1
    20   10   11 1
    21   11   12 2
    22   11   18 1
    23   12   13 1
    24   12   26 1
    25   13   14 2
    26   13   15 1
    27   15   16 2
    28   15   27 1
    29   16   17 1
    30   18   28 1
    31   20   29 1
    32   21   30 1
    33   22   31 1
