@<TRIPOS>MOLECULE
ZINC01569432
   36    38     0     0     0
SMALL
USER_CHARGES
N'-(2-fluorobenzoyl)naphthalene-2-carbohydrazide
@<TRIPOS>ATOM
      1 C1         -0.0126    1.0758    0.0080 C.ar      1 <0>        -0.1008
      2 C2         -1.2348    1.7454    0.0174 C.ar      1 <0>        -0.1172
      3 C3         -1.2878    3.1052    0.0301 C.ar      1 <0>        -0.0944
      4 C4         -0.0937    3.8485    0.0227 C.ar      1 <0>        -0.0650
      5 C5         -0.1127    5.2513    0.0294 C.ar      1 <0>        -0.0217
      6 C6          1.0838    5.9485    0.0213 C.ar      1 <0>        -0.1330
      7 C7          2.3107    5.2608    0.0063 C.ar      1 <0>        -0.0949
      8 C8          2.3480    3.9041   -0.0004 C.ar      1 <0>        -0.1032
      9 C9          1.1496    3.1669    0.0076 C.ar      1 <0>        -0.0305
     10 C10         1.1631    1.7621    0.0004 C.ar      1 <0>        -0.1130
     11 C11         1.0715    7.4261    0.0288 C.2       1 <0>         0.5649
     12 O1          0.0138    8.0251    0.0421 O.2       1 <0>        -0.5351
     13 N1          2.2330    8.1098    0.0209 N.am      1 <0>        -0.5164
     14 N2          2.2214    9.5107    0.0280 N.am      1 <0>        -0.5168
     15 C12         3.3829   10.1943    0.0202 C.2       1 <0>         0.5623
     16 O2          4.4407    9.5953    0.0069 O.2       1 <0>        -0.5209
     17 C13         3.3706   11.6711    0.0277 C.ar      1 <0>        -0.1710
     18 C14         2.1574   12.3628    0.0371 C.ar      1 <0>        -0.0567
     19 C15         2.1529   13.7414    0.0485 C.ar      1 <0>        -0.1357
     20 C16         3.3470   14.4422    0.0408 C.ar      1 <0>        -0.0562
     21 C17         4.5527   13.7669    0.0262 C.ar      1 <0>        -0.1627
     22 C18         4.5736   12.3839    0.0195 C.ar      1 <0>         0.1668
     23 F1          5.7523   11.7239    0.0048 F         1 <0>        -0.1122
     24 H1          0.0021   -0.0041    0.0020 H         1 <0>         0.1276
     25 H2         -2.1531    1.1769    0.0187 H         1 <0>         0.1281
     26 H3         -2.2420    3.6111    0.0416 H         1 <0>         0.1328
     27 H4         -1.0527    5.7831    0.0412 H         1 <0>         0.1456
     28 H5          3.2349    5.8196    0.0005 H         1 <0>         0.1272
     29 H6          3.2979    3.3903   -0.0115 H         1 <0>         0.1367
     30 H7          2.1023    1.2289   -0.0114 H         1 <0>         0.1318
     31 H8          3.0771    7.6318    0.0103 H         1 <0>         0.4336
     32 H9          1.3774    9.9886    0.0386 H         1 <0>         0.4323
     33 H10         1.2244   11.8188    0.0393 H         1 <0>         0.1372
     34 H11         1.2148   14.2764    0.0595 H         1 <0>         0.1410
     35 H12         3.3361   15.5221    0.0460 H         1 <0>         0.1423
     36 H13         5.4803   14.3200    0.0196 H         1 <0>         0.1471
@<TRIPOS>BOND
     1    1   10 ar
     2    1    2 ar
     3    1   24 1
     4    2    3 ar
     5    2   25 1
     6    3    4 ar
     7    3   26 1
     8    4    9 ar
     9    4    5 ar
    10    5    6 ar
    11    5   27 1
    12    6    7 ar
    13    6   11 1
    14    7    8 ar
    15    7   28 1
    16    8    9 ar
    17    8   29 1
    18    9   10 ar
    19   10   30 1
    20   11   12 2
    21   11   13 am
    22   13   14 1
    23   13   31 1
    24   14   15 am
    25   14   32 1
    26   15   16 2
    27   15   17 1
    28   17   22 ar
    29   17   18 ar
    30   18   19 ar
    31   18   33 1
    32   19   20 ar
    33   19   34 1
    34   20   21 ar
    35   20   35 1
    36   21   22 ar
    37   21   36 1
    38   22   23 1
@<TRIPOS>MOLECULE
ZINC00364427
   33    34     0     0     0
SMALL
USER_CHARGES

@<TRIPOS>ATOM
      1 C1          3.4387    0.9521    2.3642 C.3       1 <0>        -0.1275
      2 C2          2.7081   -0.2779    1.8905 C.ar      1 <0>        -0.0225
      3 C3          2.1257   -0.2960    0.6370 C.ar      1 <0>        -0.1405
      4 C4          1.4556   -1.4243    0.2025 C.ar      1 <0>        -0.0120
      5 C5          1.3683   -2.5346    1.0213 C.ar      1 <0>        -0.6852
      6 C6          1.9514   -2.5168    2.2745 C.ar      1 <0>        -0.0140
      7 C7          2.6252   -1.3900    2.7073 C.ar      1 <0>        -0.1422
      8 S1          0.5131   -3.9723    0.4679 S.o2      1 <0>         2.6889
      9 O1         -0.0033   -4.6096    1.6283 O.2       1 <0>        -0.9481
     10 O2         -0.3179   -3.5612   -0.6090 O.2       1 <0>        -0.9459
     11 N1          1.6441   -4.9987   -0.1721 N.pl3     1 <0>        -1.0631
     12 C8          2.3845   -4.6117   -1.2914 C.ar      1 <0>         0.1231
     13 C9          1.7936   -4.6054   -2.5488 C.ar      1 <0>        -0.0722
     14 C10         2.5283   -4.2218   -3.6533 C.ar      1 <0>        -0.1087
     15 C11         3.8511   -3.8445   -3.5088 C.ar      1 <0>        -0.0624
     16 C12         4.4423   -3.8501   -2.2590 C.ar      1 <0>        -0.1770
     17 C13         3.7114   -4.2268   -1.1492 C.ar      1 <0>        -0.0629
     18 C14         5.8842   -3.4392   -2.1067 C.3       1 <0>         0.5092
     19 F1          6.4068   -3.0986   -3.3589 F         1 <0>        -0.1743
     20 F2          5.9666   -2.3355   -1.2510 F         1 <0>        -0.1748
     21 F3          6.6176   -4.5021   -1.5687 F         1 <0>        -0.1746
     22 H1          4.4872    0.8864    2.0737 H         1 <0>         0.0815
     23 H2          2.9912    1.8372    1.9121 H         1 <0>         0.0743
     24 H3          3.3661    1.0224    3.4496 H         1 <0>         0.0741
     25 H4          2.1940    0.5714   -0.0027 H         1 <0>         0.1341
     26 H5          1.0000   -1.4382   -0.7766 H         1 <0>         0.1409
     27 H6          1.8829   -3.3841    2.9144 H         1 <0>         0.1395
     28 H7          3.0840   -1.3774    3.6850 H         1 <0>         0.1343
     29 H8          1.7924   -5.8688    0.2304 H         1 <0>         0.4291
     30 H9          0.7609   -4.9005   -2.6624 H         1 <0>         0.1475
     31 H10         2.0696   -4.2166   -4.6310 H         1 <0>         0.1461
     32 H11         4.4235   -3.5453   -4.3744 H         1 <0>         0.1452
     33 H12         4.1724   -4.2264   -0.1725 H         1 <0>         0.1401
@<TRIPOS>BOND
     1    1    2 1
     2    1   22 1
     3    1   23 1
     4    1   24 1
     5    2    7 ar
     6    2    3 ar
     7    3    4 ar
     8    3   25 1
     9    4    5 ar
    10    4   26 1
    11    5    6 ar
    12    5    8 1
    13    6    7 ar
    14    6   27 1
    15    7   28 1
    16    8    9 2
    17    8   10 2
    18    8   11 1
    19   11   12 1
    20   11   29 1
    21   12   17 ar
    22   12   13 ar
    23   13   14 ar
    24   13   30 1
    25   14   15 ar
    26   14   31 1
    27   15   16 ar
    28   15   32 1
    29   16   17 ar
    30   16   18 1
    31   17   33 1
    32   18   19 1
    33   18   20 1
    34   18   21 1
@<TRIPOS>MOLECULE
ZINC00364427
   32    33     0     0     0
SMALL
USER_CHARGES

@<TRIPOS>ATOM
      1 C1         -0.0184    1.5028    0.0103 C.3       1 <0>        -0.1161
      2 C2          0.0021   -0.0041    0.0020 C.ar      1 <0>        -0.0528
      3 C3          0.0057   -0.6887   -1.1989 C.ar      1 <0>        -0.1478
      4 C4          0.0245   -2.0709   -1.2065 C.ar      1 <0>        -0.0202
      5 C5          0.0400   -2.7685   -0.0132 C.ar      1 <0>        -0.6201
      6 C6          0.0373   -2.0839    1.1877 C.ar      1 <0>        -0.0203
      7 C7          0.0229   -0.7016    1.1953 C.ar      1 <0>        -0.1477
      8 S1          0.0628   -4.5303   -0.0229 S.o2      1 <0>         2.6055
      9 O1         -0.4759   -4.9503    1.2232 O.2       1 <0>        -1.0287
     10 O2         -0.4897   -4.9367   -1.2674 O.2       1 <0>        -1.0288
     11 N1          1.6509   -4.9994   -0.0343 N.2       1 <0>        -1.0876
     12 C8          1.9779   -6.3573   -0.0434 C.ar      1 <0>         0.2788
     13 C9          0.9721   -7.3157   -0.0489 C.ar      1 <0>        -0.2384
     14 C10         1.2989   -8.6572   -0.0584 C.ar      1 <0>        -0.0652
     15 C11         2.6258   -9.0473   -0.0621 C.ar      1 <0>        -0.1850
     16 C12         3.6293   -8.0962   -0.0563 C.ar      1 <0>        -0.1421
     17 C13         3.3094   -6.7525   -0.0530 C.ar      1 <0>        -0.1331
     18 C14         5.0737   -8.5260   -0.0594 C.3       1 <0>         0.5089
     19 F1          5.1445   -9.9232   -0.0683 F         1 <0>        -0.1848
     20 F2          5.7085   -8.0196   -1.1986 F         1 <0>        -0.1827
     21 F3          5.7090   -8.0342    1.0859 F         1 <0>        -0.1826
     22 H1          1.0042    1.8801    0.0026 H         1 <0>         0.0730
     23 H2         -0.5455    1.8639   -0.8728 H         1 <0>         0.0670
     24 H3         -0.5286    1.8543    0.9071 H         1 <0>         0.0670
     25 H4         -0.0064   -0.1436   -2.1312 H         1 <0>         0.1255
     26 H5          0.0266   -2.6057   -2.1448 H         1 <0>         0.1363
     27 H6          0.0491   -2.6289    2.1200 H         1 <0>         0.1363
     28 H7          0.0245   -0.1667    2.1335 H         1 <0>         0.1255
     29 H8         -0.0643   -7.0117   -0.0453 H         1 <0>         0.1049
     30 H9          0.5175   -9.4027   -0.0627 H         1 <0>         0.1146
     31 H10         2.8786  -10.0973   -0.0693 H         1 <0>         0.1180
     32 H11         4.0937   -6.0100   -0.0532 H         1 <0>         0.1228
@<TRIPOS>BOND
     1    1    2 1
     2    1   22 1
     3    1   23 1
     4    1   24 1
     5    2    7 ar
     6    2    3 ar
     7    3    4 ar
     8    3   25 1
     9    4    5 ar
    10    4   26 1
    11    5    6 ar
    12    5    8 1
    13    6    7 ar
    14    6   27 1
    15    7   28 1
    16    8    9 2
    17    8   10 2
    18    8   11 1
    19   11   12 1
    20   12   17 ar
    21   12   13 ar
    22   13   14 ar
    23   13   29 1
    24   14   15 ar
    25   14   30 1
    26   15   16 ar
    27   15   31 1
    28   16   17 ar
    29   16   18 1
    30   17   32 1
    31   18   19 1
    32   18   20 1
    33   18   21 1
@<TRIPOS>MOLECULE
ZINC01738108
   29    30     0     0     0
SMALL
USER_CHARGES

@<TRIPOS>ATOM
      1 C1         -0.0166    1.3766    0.0096 C.ar      1 <0>        -0.0653
      2 C2          1.1707    2.0859    0.0021 C.ar      1 <0>        -0.1827
      3 C3          2.3799    1.4157   -0.0135 C.ar      1 <0>        -0.1422
      4 C4          2.4059    0.0347   -0.0211 C.ar      1 <0>        -0.1300
      5 C5          1.2154   -0.6807   -0.0131 C.ar      1 <0>         0.2807
      6 C6          0.0021   -0.0041    0.0020 C.ar      1 <0>        -0.2374
      7 N1          1.2380   -2.0772   -0.0208 N.2       1 <0>        -1.0747
      8 S1         -0.1825   -2.9284   -0.0112 S.o2      1 <0>         2.5992
      9 O1         -0.8016   -2.6713    1.2417 O.2       1 <0>        -1.0200
     10 O2         -0.8263   -2.6580   -1.2488 O.2       1 <0>        -1.0040
     11 C7          0.2357   -4.6400   -0.0245 C.ar      1 <0>        -0.6017
     12 C8         -0.0862   -5.4382    1.0572 C.ar      1 <0>         0.0026
     13 C9          0.2418   -6.7818    1.0473 C.ar      1 <0>        -0.0544
     14 C10         0.8924   -7.3275   -0.0467 C.ar      1 <0>         0.0164
     15 C11         1.2138   -6.5286   -1.1287 C.ar      1 <0>        -0.1184
     16 C12         0.8809   -5.1856   -1.1198 C.ar      1 <0>         0.0720
     17 Cl1         1.2783   -4.1839   -2.4808 Cl        1 <0>        -0.0065
     18 Cl2         1.3049   -9.0137   -0.0595 Cl        1 <0>        -0.0373
     19 Cl3        -0.1616   -7.7839    2.4063 Cl        1 <0>        -0.0419
     20 C13         3.6711    2.1928   -0.0226 C.3       1 <0>         0.5086
     21 F1          3.3905    3.5634   -0.0129 F         1 <0>        -0.1848
     22 F2          4.4222    1.8626    1.1105 F         1 <0>        -0.1823
     23 F3          4.3991    1.8740   -1.1739 F         1 <0>        -0.1824
     24 H1         -0.9594    1.9032    0.0259 H         1 <0>         0.1149
     25 H2          1.1532    3.1658    0.0080 H         1 <0>         0.1183
     26 H3          3.3508   -0.4882   -0.0336 H         1 <0>         0.1239
     27 H4         -0.9254   -0.5574    0.0082 H         1 <0>         0.1045
     28 H5         -0.5936   -5.0126    1.9103 H         1 <0>         0.1671
     29 H6          1.7215   -6.9535   -1.9820 H         1 <0>         0.1580
@<TRIPOS>BOND
     1    1    6 ar
     2    1    2 ar
     3    1   24 1
     4    2    3 ar
     5    2   25 1
     6    3    4 ar
     7    3   20 1
     8    4    5 ar
     9    4   26 1
    10    5    6 ar
    11    5    7 1
    12    6   27 1
    13    7    8 1
    14    8    9 2
    15    8   10 2
    16    8   11 1
    17   11   16 ar
    18   11   12 ar
    19   12   13 ar
    20   12   28 1
    21   13   14 ar
    22   13   19 1
    23   14   15 ar
    24   14   18 1
    25   15   16 ar
    26   15   29 1
    27   16   17 1
    28   20   21 1
    29   20   22 1
    30   20   23 1
@<TRIPOS>MOLECULE
ZINC03860649
   18    19     0     0     0
SMALL
USER_CHARGES
5-nitroindoline-2,3-dione
@<TRIPOS>ATOM
      1 C1         -1.2324    3.1373    0.0289 C.ar      1 <0>         0.0210
      2 C2         -0.0522    3.8576    0.0219 C.ar      1 <0>        -0.1469
      3 C3          1.1690    3.1971    0.0076 C.ar      1 <0>         0.2469
      4 C4          1.1835    1.7925    0.0004 C.ar      1 <0>        -0.2407
      5 C5         -0.0126    1.0758    0.0080 C.ar      1 <0>         0.0605
      6 C6         -1.2156    1.7529    0.0173 C.ar      1 <0>        -0.0839
      7 N1         -2.4888    0.9980    0.0192 N.pl3     1 <0>         0.0307
      8 O1         -2.4747   -0.2199    0.0125 O.2       1 <0>        -0.1523
      9 O2         -3.5506    1.5947    0.0275 O.3       1 <0>        -0.1506
     10 C7          2.6009    1.3859   -0.0144 C.2       1 <0>         0.3940
     11 O3          3.0473    0.2575   -0.0241 O.2       1 <0>        -0.3472
     12 C8          3.3695    2.6739   -0.0149 C.2       1 <0>         0.4989
     13 O4          4.5772    2.7884   -0.0248 O.2       1 <0>        -0.4234
     14 N2          2.4762    3.6783   -0.0018 N.am      1 <0>        -0.6463
     15 H1         -2.1774    3.6601    0.0400 H         1 <0>         0.1715
     16 H2         -0.0803    4.9372    0.0279 H         1 <0>         0.1640
     17 H3          0.0021   -0.0041    0.0020 H         1 <0>         0.1701
     18 H4          2.7121    4.6192    0.0011 H         1 <0>         0.4338
@<TRIPOS>BOND
     1    1    6 ar
     2    1    2 ar
     3    1   15 1
     4    2    3 ar
     5    2   16 1
     6    3   14 1
     7    3    4 ar
     8    4    5 ar
     9    4   10 1
    10    5    6 ar
    11    5   17 1
    12    6    7 1
    13    7    8 2
    14    7    9 1
    15   10   11 2
    16   10   12 1
    17   12   13 2
    18   12   14 am
    19   14   18 1
@<TRIPOS>MOLECULE
ZINC31719993
   30    32     0     0     0
SMALL
USER_CHARGES

@<TRIPOS>ATOM
      1 C1          0.0689    1.4466    0.3539 C.ar      1 <0>        -0.0853
      2 C2          1.1381    2.0708   -0.2649 C.ar      1 <0>        -0.1316
      3 C3          2.2962    1.3678   -0.5226 C.ar      1 <0>        -0.0597
      4 C4          2.3886    0.0224   -0.1575 C.ar      1 <0>        -0.1631
      5 C5          1.3054   -0.6012    0.4667 C.ar      1 <0>        -0.0735
      6 C6          0.1535    0.1140    0.7183 C.ar      1 <0>        -0.1312
      7 C7          3.6261   -0.7377   -0.4309 C.2       1 <0>         0.4157
      8 O1          4.5673   -0.1921   -0.9749 O.2       1 <0>        -0.4284
      9 C8          3.7196   -2.1523   -0.0456 C.2       1 <0>        -0.1237
     10 C9          4.9026   -2.8124   -0.1635 C.2       1 <0>        -0.0597
     11 C10         6.2605   -2.2300   -0.1851 C.ar      1 <0>        -0.1337
     12 C11         6.7386   -0.9245   -0.0998 C.ar      1 <0>        -0.0273
     13 C12         8.0975   -0.6889   -0.1515 C.ar      1 <0>        -0.1516
     14 C13         8.9807   -1.7470   -0.2881 C.ar      1 <0>        -0.0652
     15 C14         8.5168   -3.0451   -0.3740 C.ar      1 <0>        -0.1469
     16 C15         7.1523   -3.3039   -0.3230 C.ar      1 <0>         0.1561
     17 N1          6.4363   -4.4952   -0.3868 N.am      1 <0>        -0.6542
     18 C16         5.1131   -4.2787   -0.2926 C.2       1 <0>         0.5579
     19 O2          4.2448   -5.1283   -0.3126 O.2       1 <0>        -0.4820
     20 H1         -0.8340    2.0032    0.5574 H         1 <0>         0.1292
     21 H2          1.0652    3.1108   -0.5468 H         1 <0>         0.1311
     22 H3          3.1296    1.8560   -1.0058 H         1 <0>         0.1355
     23 H4          1.3700   -1.6410    0.7516 H         1 <0>         0.1331
     24 H5         -0.6846   -0.3667    1.2009 H         1 <0>         0.1315
     25 H6          2.8487   -2.6680    0.3313 H         1 <0>         0.1566
     26 H7          6.0489   -0.1001    0.0060 H         1 <0>         0.1498
     27 H8          8.4725    0.3217   -0.0858 H         1 <0>         0.1327
     28 H9         10.0427   -1.5551   -0.3282 H         1 <0>         0.1344
     29 H10         9.2162   -3.8611   -0.4810 H         1 <0>         0.1309
     30 H11         6.8411   -5.3715   -0.4824 H         1 <0>         0.4228
@<TRIPOS>BOND
     1    1    6 ar
     2    1    2 ar
     3    1   20 1
     4    2    3 ar
     5    2   21 1
     6    3    4 ar
     7    3   22 1
     8    4    5 ar
     9    4    7 1
    10    5    6 ar
    11    5   23 1
    12    6   24 1
    13    7    8 2
    14    7    9 1
    15    9   10 2
    16    9   25 1
    17   10   18 1
    18   10   11 1
    19   11   16 ar
    20   11   12 ar
    21   12   13 ar
    22   12   26 1
    23   13   14 ar
    24   13   27 1
    25   14   15 ar
    26   14   28 1
    27   15   16 ar
    28   15   29 1
    29   16   17 1
    30   17   18 am
    31   17   30 1
    32   18   19 2
@<TRIPOS>MOLECULE
ZINC33324306
   30    32     0     0     0
SMALL
USER_CHARGES
(3E)-3-[2-(4-bromophenyl)-2-oxo-ethylidene]indolin-2-one
@<TRIPOS>ATOM
      1 C1          2.6073    3.8770   -1.9613 C.ar      1 <0>        -0.1542
      2 C2          3.0365    2.5609   -2.0060 C.ar      1 <0>        -0.0640
      3 C3          2.2530    1.5467   -1.4910 C.ar      1 <0>        -0.1492
      4 C4          1.0198    1.8381   -0.9203 C.ar      1 <0>         0.1557
      5 C5          0.5883    3.1720   -0.8762 C.ar      1 <0>        -0.1404
      6 C6          1.3861    4.1875   -1.3982 C.ar      1 <0>        -0.0266
      7 C7         -0.7365    3.1631   -0.2216 C.2       1 <0>        -0.0532
      8 C8         -1.5393    4.2292    0.0388 C.2       1 <0>        -0.1327
      9 C9         -0.9603    5.5748    0.1506 C.2       1 <0>         0.4163
     10 O1          0.2473    5.7201    0.1399 O.2       1 <0>        -0.4235
     11 C10        -1.8447    6.7515    0.2760 C.ar      1 <0>        -0.1468
     12 C11        -3.2327    6.5885    0.2828 C.ar      1 <0>        -0.0671
     13 C12        -4.0523    7.6901    0.4059 C.ar      1 <0>        -0.1018
     14 C13        -3.5031    8.9576    0.5111 C.ar      1 <0>        -0.0617
     15 C14        -2.1281    9.1265    0.4993 C.ar      1 <0>        -0.1019
     16 C15        -1.2972    8.0328    0.3825 C.ar      1 <0>        -0.0536
     17 Br1        -4.6352   10.4636    0.6723 Br        1 <0>        -0.0370
     18 C16        -1.0024    1.7324    0.0840 C.2       1 <0>         0.5638
     19 O2         -1.9960    1.2876    0.6237 O.2       1 <0>        -0.4843
     20 N1          0.0550    1.0199   -0.3409 N.am      1 <0>        -0.6670
     21 H1          3.2291    4.6612   -2.3672 H         1 <0>         0.1320
     22 H2          3.9936    2.3254   -2.4475 H         1 <0>         0.1337
     23 H3          2.5993    0.5245   -1.5326 H         1 <0>         0.1308
     24 H4          1.0507    5.2135   -1.3621 H         1 <0>         0.1484
     25 H5         -2.6223    4.0842    0.1658 H         1 <0>         0.1608
     26 H6         -3.6621    5.6014    0.1960 H         1 <0>         0.1434
     27 H7         -5.1250    7.5652    0.4158 H         1 <0>         0.1425
     28 H8         -1.7063   10.1174    0.5813 H         1 <0>         0.1420
     29 H9         -0.2255    8.1658    0.3737 H         1 <0>         0.1457
     30 H10         0.2195   -0.0660   -0.2797 H         1 <0>         0.4498
@<TRIPOS>BOND
     1    1    6 ar
     2    1    2 ar
     3    1   21 1
     4    2    3 ar
     5    2   22 1
     6    3    4 ar
     7    3   23 1
     8    4   20 1
     9    4    5 ar
    10    5    6 ar
    11    5    7 1
    12    6   24 1
    13    7    8 2
    14    7   18 1
    15    8    9 1
    16    8   25 1
    17    9   10 2
    18    9   11 1
    19   11   16 ar
    20   11   12 ar
    21   12   13 ar
    22   12   26 1
    23   13   14 ar
    24   13   27 1
    25   14   15 ar
    26   14   17 1
    27   15   16 ar
    28   15   28 1
    29   16   29 1
    30   18   19 2
    31   18   20 am
    32   20   30 1
@<TRIPOS>MOLECULE
ZINC36124475
   30    32     0     0     0
SMALL
USER_CHARGES

@<TRIPOS>ATOM
      1 C1          0.0667    1.3270    0.5198 C.ar      1 <0>        -0.0277
      2 C2          1.2000    2.0700    0.2708 C.ar      1 <0>        -0.1652
      3 C3          2.2912    1.4867   -0.3562 C.ar      1 <0>         0.1358
      4 C4          2.2485    0.1533   -0.7366 C.ar      1 <0>        -0.1650
      5 C5          1.1207   -0.5996   -0.4928 C.ar      1 <0>        -0.0426
      6 C6          0.0180   -0.0173    0.1392 C.ar      1 <0>        -0.1759
      7 C7         -1.1934   -0.8189    0.4036 C.2       1 <0>         0.4174
      8 O1         -2.1515   -0.3099    0.9537 O.2       1 <0>        -0.4252
      9 C8         -1.2416   -2.2316    0.0024 C.2       1 <0>        -0.1174
     10 C9         -2.4026   -2.9305    0.1128 C.2       1 <0>        -0.0597
     11 C10        -3.7786   -2.3921    0.1405 C.ar      1 <0>        -0.1294
     12 C11        -4.2980   -1.1017    0.0693 C.ar      1 <0>         0.0011
     13 C12        -5.6646   -0.9101    0.1231 C.ar      1 <0>        -0.1263
     14 C13        -6.5136   -1.9983    0.2474 C.ar      1 <0>        -0.0360
     15 C14        -6.0077   -3.2815    0.3188 C.ar      1 <0>        -0.1401
     16 C15        -4.6355   -3.4954    0.2664 C.ar      1 <0>         0.1747
     17 N1         -3.8814   -4.6641    0.3171 N.am      1 <0>        -0.6524
     18 C16        -2.5659   -4.4040    0.2256 C.2       1 <0>         0.5599
     19 O2         -1.6707   -5.2255    0.2361 O.2       1 <0>        -0.4752
     20 Br1        -6.3779    0.8386    0.0277 Br        1 <0>        -0.0372
     21 F1          3.3998    2.2201   -0.5978 F         1 <0>        -0.1305
     22 H1         -0.7806    1.7811    1.0120 H         1 <0>         0.1476
     23 H2          1.2386    3.1087    0.5641 H         1 <0>         0.1454
     24 H3          3.1008   -0.2954   -1.2250 H         1 <0>         0.1458
     25 H4          1.0884   -1.6375   -0.7897 H         1 <0>         0.1444
     26 H5         -0.3547   -2.7149   -0.3802 H         1 <0>         0.1600
     27 H6         -3.6350   -0.2547   -0.0272 H         1 <0>         0.1608
     28 H7         -7.5813   -1.8414    0.2893 H         1 <0>         0.1453
     29 H8         -6.6803   -4.1209    0.4156 H         1 <0>         0.1419
     30 H9         -4.2578   -5.5539    0.4035 H         1 <0>         0.4256
@<TRIPOS>BOND
     1    1    6 ar
     2    1    2 ar
     3    1   22 1
     4    2    3 ar
     5    2   23 1
     6    3    4 ar
     7    3   21 1
     8    4    5 ar
     9    4   24 1
    10    5    6 ar
    11    5   25 1
    12    6    7 1
    13    7    8 2
    14    7    9 1
    15    9   10 2
    16    9   26 1
    17   10   18 1
    18   10   11 1
    19   11   16 ar
    20   11   12 ar
    21   12   13 ar
    22   12   27 1
    23   13   14 ar
    24   13   20 1
    25   14   15 ar
    26   14   28 1
    27   15   16 ar
    28   15   29 1
    29   16   17 1
    30   17   18 am
    31   17   30 1
    32   18   19 2
@<TRIPOS>MOLECULE
ZINC03998043
   42    44     0     0     0
SMALL
USER_CHARGES
1-(2,4-dimethoxyphenyl)-3-(1-naphthyl)prop-2-en-1-one
@<TRIPOS>ATOM
      1 C1          2.6365   -7.2555   -0.0592 C.3       1 <0>         0.0239
      2 O1          3.8979   -6.5840   -0.0675 O.3       1 <0>        -0.3113
      3 C2          3.8736   -5.2271   -0.0604 C.ar      1 <0>         0.1991
      4 C3          2.6542   -4.5557   -0.0451 C.ar      1 <0>        -0.2582
      5 C4          2.6205   -3.1808   -0.0324 C.ar      1 <0>         0.0046
      6 C5          3.8147   -2.4527   -0.0457 C.ar      1 <0>        -0.2331
      7 C6          5.0432   -3.1309   -0.0607 C.ar      1 <0>         0.2225
      8 C7          5.0639   -4.5149   -0.0679 C.ar      1 <0>        -0.2619
      9 O2          6.2064   -2.4326   -0.0684 O.3       1 <0>        -0.2798
     10 C8          7.4179   -3.1903   -0.0836 C.3       1 <0>         0.0183
     11 C9          3.7830   -0.9788   -0.0380 C.2       1 <0>         0.4254
     12 O3          4.8246   -0.3471   -0.0445 O.2       1 <0>        -0.4456
     13 C10         2.5018   -0.2754   -0.0224 C.2       1 <0>        -0.2276
     14 C11         2.4727    1.0772   -0.0153 C.2       1 <0>        -0.0177
     15 C12         1.1873    1.7829    0.0003 C.ar      1 <0>        -0.0693
     16 C13        -0.0126    1.0758    0.0080 C.ar      1 <0>        -0.0893
     17 C14        -1.2261    1.7472    0.0174 C.ar      1 <0>        -0.1226
     18 C15        -1.2953    3.1075    0.0316 C.ar      1 <0>        -0.0890
     19 C16        -0.1255    3.8859    0.0241 C.ar      1 <0>        -0.0564
     20 C17         1.1374    3.2452    0.0086 C.ar      1 <0>        -0.0321
     21 C18         2.3045    4.0166    0.0021 C.ar      1 <0>        -0.1115
     22 C19         2.2133    5.3772    0.0104 C.ar      1 <0>        -0.1075
     23 C20         0.9732    6.0107    0.0251 C.ar      1 <0>        -0.1171
     24 C21        -0.1823    5.2903    0.0322 C.ar      1 <0>        -0.1027
     25 H1          2.0827   -6.9772    0.8375 H         1 <0>         0.0608
     26 H2          2.0661   -6.9682   -0.9424 H         1 <0>         0.0609
     27 H3          2.7987   -8.3334   -0.0662 H         1 <0>         0.1044
     28 H4          1.7312   -5.1166   -0.0390 H         1 <0>         0.1373
     29 H5          1.6725   -2.6636   -0.0161 H         1 <0>         0.1412
     30 H6          6.0073   -5.0406   -0.0790 H         1 <0>         0.1435
     31 H7          7.4619   -3.8228    0.8030 H         1 <0>         0.0595
     32 H8          7.4450   -3.8144   -0.9768 H         1 <0>         0.0595
     33 H9          8.2708   -2.5117   -0.0885 H         1 <0>         0.1057
     34 H10         1.5783   -0.8354   -0.0166 H         1 <0>         0.1322
     35 H11         3.3961    1.6372   -0.0211 H         1 <0>         0.1360
     36 H12         0.0021   -0.0041    0.0020 H         1 <0>         0.1302
     37 H13        -2.1421    1.1752    0.0187 H         1 <0>         0.1271
     38 H14        -2.2599    3.5931    0.0430 H         1 <0>         0.1288
     39 H15         3.2723    3.5372   -0.0098 H         1 <0>         0.1302
     40 H16         3.1151    5.9715    0.0057 H         1 <0>         0.1266
     41 H17         0.9273    7.0897    0.0314 H         1 <0>         0.1256
     42 H18        -1.1369    5.7952    0.0444 H         1 <0>         0.1295
@<TRIPOS>BOND
     1    1    2 1
     2    1   25 1
     3    1   26 1
     4    1   27 1
     5    2    3 1
     6    3    8 ar
     7    3    4 ar
     8    4    5 ar
     9    4   28 1
    10    5    6 ar
    11    5   29 1
    12    6    7 ar
    13    6   11 1
    14    7    8 ar
    15    7    9 1
    16    8   30 1
    17    9   10 1
    18   10   31 1
    19   10   32 1
    20   10   33 1
    21   11   12 2
    22   11   13 1
    23   13   14 2
    24   13   34 1
    25   14   15 1
    26   14   35 1
    27   15   20 ar
    28   15   16 ar
    29   16   17 ar
    30   16   36 1
    31   17   18 ar
    32   17   37 1
    33   18   19 ar
    34   18   38 1
    35   19   24 ar
    36   19   20 ar
    37   20   21 ar
    38   21   22 ar
    39   21   39 1
    40   22   23 ar
    41   22   40 1
    42   23   24 ar
    43   23   41 1
    44   24   42 1
@<TRIPOS>MOLECULE
ZINC03814434
   62    69     0     0     0
SMALL
USER_CHARGES

@<TRIPOS>ATOM
      1 C1         -0.1295    1.5952   -0.2973 C.3       1 <0>        -0.1687
      2 C2         -0.0862    0.0696   -0.1900 C.3       1 <0>         0.3342
      3 C3          0.5692   -0.4501   -1.4637 C.3       1 <0>         0.0405
      4 H1          1.4796    0.1159   -1.6612 H         1 <0>         0.1372
      5 C4          0.9167   -1.9328   -1.2889 C.3       1 <0>        -0.0061
      6 H2          1.3963   -2.3075   -2.1932 H         1 <0>         0.1555
      7 C5          1.8785   -2.0596   -0.1021 C.3       1 <0>        -0.1827
      8 C6          1.2061   -1.5198    1.1541 C.3       1 <0>         0.2999
      9 H3          1.9797   -1.4243    1.9161 H         1 <0>         0.1550
     10 O1          0.6555   -0.2442    0.9666 O.3       1 <0>        -0.3234
     11 N1          0.2189   -2.4746    1.6600 N.pl3     1 <0>        -0.5366
     12 C7          0.4705   -3.5508    2.4739 C.ar      1 <0>         0.1469
     13 C8          1.6649   -4.0152    3.0240 C.ar      1 <0>        -0.1522
     14 C9          1.5948   -5.1456    3.8201 C.ar      1 <0>        -0.0582
     15 C10         0.4006   -5.7997    4.0696 C.ar      1 <0>        -0.1457
     16 C11        -0.7984   -5.3597    3.5358 C.ar      1 <0>        -0.0280
     17 C12        -0.7487   -4.2198    2.7307 C.ar      1 <0>        -0.1131
     18 C13        -1.7893   -3.4830    2.0197 C.ar      1 <0>         0.0276
     19 C14        -1.1442   -2.4197    1.3841 C.ar      1 <0>         0.0376
     20 C15        -1.8806   -1.5095    0.6175 C.ar      1 <0>         0.0894
     21 N2         -1.4718   -0.3951   -0.1095 N.pl3     1 <0>        -0.5183
     22 C16        -2.5611    0.1913   -0.7090 C.ar      1 <0>         0.1618
     23 C17        -2.6521    1.3277   -1.5118 C.ar      1 <0>        -0.1305
     24 C18        -3.9109    1.6745   -1.9733 C.ar      1 <0>        -0.0737
     25 C19        -5.0393    0.9368   -1.6616 C.ar      1 <0>        -0.1358
     26 C20        -4.9745   -0.1955   -0.8662 C.ar      1 <0>        -0.0503
     27 C21        -3.7147   -0.5596   -0.3919 C.ar      1 <0>        -0.1042
     28 C22        -3.2693   -1.6660    0.4845 C.ar      1 <0>        -0.0360
     29 C23        -3.9084   -2.7313    1.1102 C.ar      1 <0>        -0.0288
     30 C24        -3.1873   -3.6421    1.8754 C.ar      1 <0>        -0.1255
     31 C25        -4.1221   -4.6480    2.4030 C.2       1 <0>         0.5632
     32 O2         -3.8062   -5.5851    3.1110 O.2       1 <0>        -0.5106
     33 N3         -5.3744   -4.3851    1.9926 N.am      1 <0>        -0.7162
     34 C26        -5.3495   -3.1771    1.1601 C.3       1 <0>         0.1358
     35 N4         -0.3067   -2.7008   -1.0216 N.4       1 <0>        -0.5252
     36 C27         0.0145   -4.1336   -0.9773 C.3       1 <0>        -0.0497
     37 O3         -0.3340   -0.2979   -2.5607 O.3       1 <0>        -0.3614
     38 C28         0.3101   -0.0933   -3.8198 C.3       1 <0>         0.0162
     39 H4          0.8261    2.0094    0.0240 H         1 <0>         0.0984
     40 H5         -0.3202    1.8814   -1.3317 H         1 <0>         0.1036
     41 H6         -0.9255    1.9818    0.3392 H         1 <0>         0.0921
     42 H7          2.1370   -3.1081    0.0458 H         1 <0>         0.1233
     43 H8          2.7835   -1.4869   -0.3048 H         1 <0>         0.1455
     44 H9          2.6036   -3.5149    2.8368 H         1 <0>         0.1365
     45 H10         2.5026   -5.5304    4.2610 H         1 <0>         0.1359
     46 H11         0.4045   -6.6780    4.6980 H         1 <0>         0.1352
     47 H12        -1.7278   -5.8736    3.7323 H         1 <0>         0.1600
     48 H13        -1.7792    1.9122   -1.7624 H         1 <0>         0.1440
     49 H14        -4.0153    2.5500   -2.5970 H         1 <0>         0.1336
     50 H15        -5.9967    1.2527   -2.0488 H         1 <0>         0.1332
     51 H16        -5.8575   -0.7687   -0.6249 H         1 <0>         0.1415
     52 H17        -6.1628   -4.9065    2.2103 H         1 <0>         0.4348
     53 H18        -5.9671   -2.3994    1.6094 H         1 <0>         0.1115
     54 H19        -5.7060   -3.4063    0.1559 H         1 <0>         0.1103
     55 H20        -0.6958   -2.4158   -0.1353 H         1 <0>         0.4186
     56 H21         0.4349   -4.4415   -1.9347 H         1 <0>         0.1256
     57 H22         0.7403   -4.3189   -0.1854 H         1 <0>         0.1191
     58 H23        -0.8932   -4.7035   -0.7789 H         1 <0>         0.1256
     59 H24         0.9168    0.8112   -3.7748 H         1 <0>         0.0633
     60 H25         0.9482   -0.9479   -4.0446 H         1 <0>         0.0514
     61 H26        -0.4433    0.0130   -4.6003 H         1 <0>         0.1100
     62 H27        -0.9785   -2.5293   -1.7546 H         1 <0>         0.4274
@<TRIPOS>BOND
     1    1    2 1
     2    1   39 1
     3    1   40 1
     4    1   41 1
     5    2   10 1
     6    2   21 1
     7    2    3 1
     8    3    4 1
     9    3    5 1
    10    3   37 1
    11    5    6 1
    12    5    7 1
    13    5   35 1
    14    7    8 1
    15    7   42 1
    16    7   43 1
    17    8    9 1
    18    8   10 1
    19    8   11 1
    20   11   19 1
    21   11   12 1
    22   12   17 ar
    23   12   13 ar
    24   13   14 ar
    25   13   44 1
    26   14   15 ar
    27   14   45 1
    28   15   16 ar
    29   15   46 1
    30   16   17 ar
    31   16   47 1
    32   17   18 1
    33   18   30 ar
    34   18   19 ar
    35   19   20 ar
    36   20   28 ar
    37   20   21 1
    38   21   22 1
    39   22   27 ar
    40   22   23 ar
    41   23   24 ar
    42   23   48 1
    43   24   25 ar
    44   24   49 1
    45   25   26 ar
    46   25   50 1
    47   26   27 ar
    48   26   51 1
    49   27   28 1
    50   28   29 ar
    51   29   34 1
    52   29   30 ar
    53   30   31 1
    54   31   32 2
    55   31   33 am
    56   33   34 1
    57   33   52 1
    58   34   53 1
    59   34   54 1
    60   35   36 1
    61   35   55 1
    62   35   62 1
    63   36   56 1
    64   36   57 1
    65   36   58 1
    66   37   38 1
    67   38   59 1
    68   38   60 1
    69   38   61 1
@<TRIPOS>MOLECULE
ZINC04159317
   30    31     0     0     0
SMALL
USER_CHARGES
1-(3-nitrophenyl)-3-phenyl-prop-2-en-1-one
@<TRIPOS>ATOM
      1 C1          4.8115    9.5931    0.0033 C.ar      1 <0>        -0.1011
      2 C2          3.6056   10.2725    0.0176 C.ar      1 <0>        -0.1230
      3 C3          2.4168    9.5744    0.0257 C.ar      1 <0>        -0.0889
      4 C4          2.4315    8.1755    0.0190 C.ar      1 <0>        -0.0900
      5 C5          3.6545    7.4962    0.0099 C.ar      1 <0>        -0.0962
      6 C6          4.8345    8.2091   -0.0039 C.ar      1 <0>        -0.1236
      7 C7          1.1677    7.4227    0.0275 C.2       1 <0>         0.0050
      8 C8          1.1860    6.0720    0.0210 C.2       1 <0>        -0.2469
      9 C9         -0.0702    5.3238    0.0294 C.2       1 <0>         0.4274
     10 O1         -1.1324    5.9180    0.0423 O.2       1 <0>        -0.4452
     11 C10        -0.0501    3.8448    0.0223 C.ar      1 <0>        -0.1549
     12 C11         1.1667    3.1601    0.0074 C.ar      1 <0>        -0.0258
     13 C12         1.1783    1.7810    0.0004 C.ar      1 <0>        -0.1250
     14 C13        -0.0126    1.0758    0.0080 C.ar      1 <0>        -0.0286
     15 C14        -1.2218    1.7481    0.0173 C.ar      1 <0>        -0.0531
     16 C15        -1.2476    3.1274    0.0298 C.ar      1 <0>        -0.0030
     17 N1         -2.4905    0.9858    0.0197 N.pl3     1 <0>         0.0253
     18 O2         -2.4693   -0.2320    0.0134 O.2       1 <0>        -0.1519
     19 O3         -3.5558    1.5762    0.0280 O.3       1 <0>        -0.1513
     20 H1          5.7393   10.1457   -0.0026 H         1 <0>         0.1270
     21 H2          3.5960   11.3525    0.0228 H         1 <0>         0.1290
     22 H3          1.4767   10.1060    0.0368 H         1 <0>         0.1301
     23 H4          3.6742    6.4164    0.0095 H         1 <0>         0.1276
     24 H5          5.7795    7.6863   -0.0154 H         1 <0>         0.1282
     25 H6          0.2252    7.9499    0.0390 H         1 <0>         0.1380
     26 H7          2.1285    5.5448    0.0095 H         1 <0>         0.1365
     27 H8          2.0967    3.7092    0.0019 H         1 <0>         0.1524
     28 H9          2.1188    1.2501   -0.0107 H         1 <0>         0.1570
     29 H10         0.0021   -0.0041    0.0020 H         1 <0>         0.1603
     30 H11        -2.1921    3.6510    0.0409 H         1 <0>         0.1648
@<TRIPOS>BOND
     1    1    6 ar
     2    1    2 ar
     3    1   20 1
     4    2    3 ar
     5    2   21 1
     6    3    4 ar
     7    3   22 1
     8    4    5 ar
     9    4    7 1
    10    5    6 ar
    11    5   23 1
    12    6   24 1
    13    7    8 2
    14    7   25 1
    15    8    9 1
    16    8   26 1
    17    9   10 2
    18    9   11 1
    19   11   16 ar
    20   11   12 ar
    21   12   13 ar
    22   12   27 1
    23   13   14 ar
    24   13   28 1
    25   14   15 ar
    26   14   29 1
    27   15   16 ar
    28   15   17 1
    29   16   30 1
    30   17   18 2
    31   17   19 1
@<TRIPOS>MOLECULE
ZINC18117761
   30    32     0     0     0
SMALL
USER_CHARGES
(3Z)-3-phenacylideneindolin-2-one
@<TRIPOS>ATOM
      1 C1          0.0068    1.0990   -0.3772 C.ar      1 <0>        -0.0899
      2 C2         -1.1890    1.7531   -0.1361 C.ar      1 <0>        -0.1314
      3 C3         -1.2254    3.1304   -0.0762 C.ar      1 <0>        -0.0785
      4 C4         -0.0537    3.8660   -0.2714 C.ar      1 <0>        -0.1576
      5 C5          1.1486    3.1992   -0.5201 C.ar      1 <0>        -0.0625
      6 C6          1.1714    1.8213   -0.5711 C.ar      1 <0>        -0.1300
      7 C7         -0.0861    5.3424   -0.2157 C.2       1 <0>         0.3902
      8 O1          0.9355    5.9800   -0.3865 O.2       1 <0>        -0.3887
      9 C8         -1.3523    6.0400    0.0460 C.2       1 <0>        -0.1160
     10 C9         -1.3719    7.3952    0.1552 C.2       1 <0>        -0.0660
     11 C10        -2.5546    8.2708    0.2899 C.ar      1 <0>        -0.1354
     12 C11        -3.9237    8.0205    0.3446 C.ar      1 <0>        -0.0454
     13 C12        -4.8067    9.0729    0.4771 C.ar      1 <0>        -0.1474
     14 C13        -4.3319   10.3717    0.5552 C.ar      1 <0>        -0.0664
     15 C14        -2.9762   10.6305    0.5019 C.ar      1 <0>        -0.1448
     16 C15        -2.0704    9.5849    0.3687 C.ar      1 <0>         0.1655
     17 N1         -0.6812    9.5721    0.2918 N.am      1 <0>        -0.6617
     18 C16        -0.2075    8.3200    0.1717 C.2       1 <0>         0.5386
     19 O2          0.9620    8.0012    0.0884 O.2       1 <0>        -0.4336
     20 H1          0.0303    0.0201   -0.4187 H         1 <0>         0.1281
     21 H2         -2.0949    1.1834    0.0095 H         1 <0>         0.1302
     22 H3         -2.1582    3.6394    0.1164 H         1 <0>         0.1309
     23 H4          2.0581    3.7616   -0.6715 H         1 <0>         0.1346
     24 H5          2.1001    1.3046   -0.7632 H         1 <0>         0.1301
     25 H6         -2.2675    5.4764    0.1516 H         1 <0>         0.1534
     26 H7         -4.2927    7.0074    0.2839 H         1 <0>         0.1323
     27 H8         -5.8691    8.8835    0.5203 H         1 <0>         0.1342
     28 H9         -5.0287   11.1903    0.6584 H         1 <0>         0.1351
     29 H10        -2.6192   11.6479    0.5643 H         1 <0>         0.1316
     30 H11        -0.1247   10.3659    0.3255 H         1 <0>         0.4207
@<TRIPOS>BOND
     1    1    6 ar
     2    1    2 ar
     3    1   20 1
     4    2    3 ar
     5    2   21 1
     6    3    4 ar
     7    3   22 1
     8    4    5 ar
     9    4    7 1
    10    5    6 ar
    11    5   23 1
    12    6   24 1
    13    7    8 2
    14    7    9 1
    15    9   10 2
    16    9   25 1
    17   10   18 1
    18   10   11 1
    19   11   16 ar
    20   11   12 ar
    21   12   13 ar
    22   12   26 1
    23   13   14 ar
    24   13   27 1
    25   14   15 ar
    26   14   28 1
    27   15   16 ar
    28   15   29 1
    29   16   17 1
    30   17   18 am
    31   17   30 1
    32   18   19 2
@<TRIPOS>MOLECULE
ZINC03871576
   30    32     0     0     0
SMALL
USER_CHARGES

@<TRIPOS>ATOM
      1 C1         -0.0169    1.3935    0.0097 C.ar      1 <0>        -0.0604
      2 C2          1.1676    2.0963    0.0022 C.ar      1 <0>        -0.1497
      3 C3          2.3803    1.4179   -0.0135 C.ar      1 <0>         0.1360
      4 C4          2.4038    0.0284   -0.0212 C.ar      1 <0>        -0.1474
      5 C5          1.2241   -0.6823   -0.0133 C.ar      1 <0>        -0.0612
      6 C6          0.0021   -0.0041    0.0020 C.ar      1 <0>        -0.0853
      7 C7         -1.2639   -0.7610    0.0105 C.2       1 <0>         0.2092
      8 C8         -1.2134   -2.1203    0.0083 C.2       1 <0>        -0.3116
      9 C9         -2.4177   -2.8631    0.0169 C.2       1 <0>         0.4226
     10 O1         -2.4099   -4.0836    0.0156 O.2       1 <0>        -0.4538
     11 C10        -3.6809   -2.1061    0.0279 C.ar      1 <0>        -0.2659
     12 C11        -4.9199   -2.7591    0.0374 C.ar      1 <0>         0.2192
     13 C12        -6.0832   -2.0121    0.0480 C.ar      1 <0>        -0.2049
     14 C13        -6.0212   -0.6227    0.0493 C.ar      1 <0>         0.1922
     15 C14        -4.7984    0.0300    0.0400 C.ar      1 <0>        -0.1830
     16 C15        -3.6212   -0.7020    0.0293 C.ar      1 <0>         0.1830
     17 O2         -2.4220   -0.0821    0.0257 O.3       1 <0>        -0.2182
     18 O3         -7.1695    0.1013    0.0593 O.3       1 <0>        -0.4872
     19 O4         -4.9782   -4.1150    0.0356 O.3       1 <0>        -0.4722
     20 O5          3.5455    2.1145   -0.0218 O.3       1 <0>        -0.4965
     21 H1         -0.9589    1.9215    0.0260 H         1 <0>         0.1404
     22 H2          1.1538    3.1762    0.0081 H         1 <0>         0.1393
     23 H3          3.3485   -0.4949   -0.0338 H         1 <0>         0.1414
     24 H4          1.2432   -1.7622   -0.0196 H         1 <0>         0.1415
     25 H5         -0.2608   -2.6290   -0.0002 H         1 <0>         0.1637
     26 H6         -7.0423   -2.5086    0.0550 H         1 <0>         0.1502
     27 H7         -4.7627    1.1094    0.0411 H         1 <0>         0.1534
     28 H8         -7.4952    0.3100    0.9456 H         1 <0>         0.4037
     29 H9         -4.9875   -4.5094    0.9185 H         1 <0>         0.4031
     30 H10         3.8920    2.3119    0.8591 H         1 <0>         0.3984
@<TRIPOS>BOND
     1    1    6 ar
     2    1    2 ar
     3    1   21 1
     4    2    3 ar
     5    2   22 1
     6    3    4 ar
     7    3   20 1
     8    4    5 ar
     9    4   23 1
    10    5    6 ar
    11    5   24 1
    12    6    7 1
    13    7   17 1
    14    7    8 2
    15    8    9 1
    16    8   25 1
    17    9   10 2
    18    9   11 1
    19   11   16 ar
    20   11   12 ar
    21   12   13 ar
    22   12   19 1
    23   13   14 ar
    24   13   26 1
    25   14   15 ar
    26   14   18 1
    27   15   16 ar
    28   15   27 1
    29   16   17 1
    30   18   28 1
    31   19   29 1
    32   20   30 1
@<TRIPOS>MOLECULE
ZINC03871576
   29    31     0     0     0
SMALL
USER_CHARGES

@<TRIPOS>ATOM
      1 C1         -0.0169    1.3945    0.0097 C.ar      1 <0>        -0.0666
      2 C2          1.1672    2.0969    0.0022 C.ar      1 <0>        -0.1480
      3 C3          2.3804    1.4183   -0.0135 C.ar      1 <0>         0.1175
      4 C4          2.4042    0.0284   -0.0212 C.ar      1 <0>        -0.1471
      5 C5          1.2251   -0.6825   -0.0138 C.ar      1 <0>        -0.0696
      6 C6          0.0021   -0.0041    0.0020 C.ar      1 <0>        -0.0607
      7 C7         -1.2623   -0.7603    0.0105 C.2       1 <0>         0.1733
      8 C8         -1.2238   -2.1392    0.0085 C.2       1 <0>        -0.2675
      9 C9         -2.4161   -2.8666    0.0170 C.2       1 <0>         0.3649
     10 C10        -3.6370   -2.1554    0.0275 C.2       1 <0>        -0.3407
     11 C11        -4.8707   -2.8387    0.0369 C.2       1 <0>         0.2653
     12 C12        -6.0384   -2.1317    0.0475 C.2       1 <0>        -0.3780
     13 C13        -6.0158   -0.7277    0.0485 C.2       1 <0>         0.3615
     14 O1         -7.1627   -0.0461    0.0589 O.2       1 <0>        -0.6669
     15 C14        -4.7977   -0.0391    0.0393 C.2       1 <0>        -0.3147
     16 C15        -3.6098   -0.7430    0.0291 C.2       1 <0>         0.2111
     17 O2         -2.4272   -0.0920    0.0257 O.3       1 <0>        -0.2196
     18 O3         -4.8969   -4.1953    0.0351 O.3       1 <0>        -0.4477
     19 O4         -2.4024   -4.2178    0.0147 O.3       1 <0>        -0.5784
     20 O5          3.5452    2.1149   -0.0218 O.3       1 <0>        -0.4988
     21 H1         -0.9589    1.9225    0.0260 H         1 <0>         0.1416
     22 H2          1.1536    3.1768    0.0081 H         1 <0>         0.1349
     23 H3          3.3490   -0.4946   -0.0334 H         1 <0>         0.1360
     24 H4          1.2446   -1.7623   -0.0201 H         1 <0>         0.1407
     25 H5         -0.2747   -2.6546   -0.0001 H         1 <0>         0.1464
     26 H6         -6.9835   -2.6543    0.0547 H         1 <0>         0.1160
     27 H7         -4.7867    1.0408    0.0398 H         1 <0>         0.1203
     28 H8         -5.7877   -4.5715    0.0420 H         1 <0>         0.3828
     29 H9          3.8917    2.3124    0.8591 H         1 <0>         0.3921
@<TRIPOS>BOND
     1    1    6 ar
     2    1    2 ar
     3    1   21 1
     4    2    3 ar
     5    2   22 1
     6    3    4 ar
     7    3   20 1
     8    4    5 ar
     9    4   23 1
    10    5    6 ar
    11    5   24 1
    12    6    7 1
    13    7   17 1
    14    7    8 2
    15    8    9 1
    16    8   25 1
    17    9   10 2
    18    9   19 1
    19   10   16 1
    20   10   11 1
    21   11   12 2
    22   11   18 1
    23   12   13 1
    24   12   26 1
    25   13   14 2
    26   13   15 1
    27   15   16 2
    28   15   27 1
    29   16   17 1
    30   18   28 1
    31   20   29 1
@<TRIPOS>MOLECULE
ZINC00047961
   20    21     0     0     0
SMALL
USER_CHARGES
2-(2-oxoindolin-3-ylidene)propanedinitrile
@<TRIPOS>ATOM
      1 C1         -0.0126    1.0758    0.0080 C.ar      1 <0>        -0.1422
      2 C2         -1.2222    1.7511    0.0174 C.ar      1 <0>        -0.0508
      3 C3         -1.2585    3.1318    0.0305 C.ar      1 <0>        -0.1396
      4 C4         -0.0759    3.8614    0.0235 C.ar      1 <0>         0.1760
      5 C5          1.1483    3.1747    0.0081 C.ar      1 <0>        -0.1494
      6 C6          1.1733    1.7808    0.0004 C.ar      1 <0>        -0.0336
      7 C7          2.2055    4.2032    0.0040 C.2       1 <0>         0.0018
      8 C8          3.5763    4.0037   -0.0099 C.2       1 <0>         0.1178
      9 C9          4.4635    5.1278   -0.0119 C.1       1 <0>         0.2389
     10 N1          5.1672    6.0195   -0.0135 N.1       1 <0>        -0.3444
     11 C10         4.1061    2.6734   -0.0225 C.1       1 <0>         0.2498
     12 N2          4.5264    1.6180   -0.0324 N.1       1 <0>        -0.3556
     13 C11         1.4817    5.4974    0.0182 C.2       1 <0>         0.5588
     14 O1          1.9893    6.6019    0.0200 O.2       1 <0>        -0.4570
     15 N3          0.1643    5.2312    0.0290 N.am      1 <0>        -0.6501
     16 H1          0.0021   -0.0041    0.0020 H         1 <0>         0.1393
     17 H2         -2.1463    1.1921    0.0187 H         1 <0>         0.1410
     18 H3         -2.2084    3.6456    0.0420 H         1 <0>         0.1384
     19 H4          2.1168    1.2553   -0.0111 H         1 <0>         0.1311
     20 H5         -0.5304    5.9082    0.0391 H         1 <0>         0.4299
@<TRIPOS>BOND
     1    1    6 ar
     2    1    2 ar
     3    1   16 1
     4    2    3 ar
     5    2   17 1
     6    3    4 ar
     7    3   18 1
     8    4   15 1
     9    4    5 ar
    10    5    6 ar
    11    5    7 1
    12    6   19 1
    13    7    8 2
    14    7   13 1
    15    8    9 1
    16    8   11 1
    17    9   10 3
    18   11   12 3
    19   13   14 2
    20   13   15 am
    21   15   20 1
@<TRIPOS>MOLECULE
ZINC02149990
   31    32     0     0     0
SMALL
USER_CHARGES

@<TRIPOS>ATOM
      1 C1         -0.7696    0.9559    0.1072 C.ar      1 <0>        -0.1561
      2 C2          0.2301    1.8786    0.0407 C.ar      1 <0>        -0.0084
      3 C3          1.5627    1.4486   -0.0513 C.ar      1 <0>        -0.1402
      4 C4          2.6351    2.3527   -0.1222 C.ar      1 <0>         0.1720
      5 N1          3.8651    1.9028   -0.2069 N.ar      1 <0>        -0.4886
      6 C5          4.1565    0.6093   -0.2297 C.ar      1 <0>         0.1179
      7 C6          3.1893   -0.3471   -0.1661 C.ar      1 <0>        -0.1979
      8 C7          1.8450    0.0577   -0.0736 C.ar      1 <0>         0.0580
      9 C8          0.7902   -0.8632   -0.0034 C.ar      1 <0>        -0.6941
     10 C9         -0.4914   -0.4092    0.0852 C.ar      1 <0>         0.0350
     11 S1          1.1192   -2.5940   -0.0301 S.o2      1 <0>         2.6980
     12 O1         -0.1354   -3.2480    0.1013 O.2       1 <0>        -0.9449
     13 O2          1.9874   -2.8254   -1.1310 O.2       1 <0>        -0.9306
     14 N2          1.9836   -2.9492    1.3370 N.pl3     1 <0>        -1.1168
     15 C10         1.3773   -2.7589    2.6570 C.3       1 <0>         0.0891
     16 C11         2.1929   -3.5164    3.7068 C.3       1 <0>        -0.0160
     17 N3          1.5849   -3.3256    5.0304 N.4       1 <0>        -0.6343
     18 H1         -1.7946    1.2878    0.1826 H         1 <0>         0.1452
     19 H2         -0.0012    2.9334    0.0584 H         1 <0>         0.1489
     20 H3          2.4480    3.4163   -0.1074 H         1 <0>         0.1734
     21 H4          5.1905    0.3057   -0.3012 H         1 <0>         0.1635
     22 H5          3.4489   -1.3952   -0.1865 H         1 <0>         0.1410
     23 H6         -1.3041   -1.1184    0.1397 H         1 <0>         0.1512
     24 H7          2.8913   -3.2833    1.2638 H         1 <0>         0.4275
     25 H8          1.3665   -1.6969    2.9022 H         1 <0>         0.0890
     26 H9          0.3561   -3.1398    2.6461 H         1 <0>         0.1052
     27 H10         2.2037   -4.5784    3.4617 H         1 <0>         0.1462
     28 H11         3.2141   -3.1355    3.7177 H         1 <0>         0.1436
     29 H12         1.5749   -2.3425    5.2574 H         1 <0>         0.4381
     30 H13         0.6396   -3.6781    5.0203 H         1 <0>         0.4397
     31 H14         2.1228   -3.8251    5.7228 H         1 <0>         0.4453
@<TRIPOS>BOND
     1    1   10 ar
     2    1    2 ar
     3    1   18 1
     4    2    3 ar
     5    2   19 1
     6    3    8 ar
     7    3    4 ar
     8    4    5 ar
     9    4   20 1
    10    5    6 ar
    11    6    7 ar
    12    6   21 1
    13    7    8 ar
    14    7   22 1
    15    8    9 ar
    16    9   10 ar
    17    9   11 1
    18   10   23 1
    19   11   12 2
    20   11   13 2
    21   11   14 1
    22   14   15 1
    23   14   24 1
    24   15   16 1
    25   15   25 1
    26   15   26 1
    27   16   17 1
    28   16   27 1
    29   16   28 1
    30   17   29 1
    31   17   30 1
    32   17   31 1
@<TRIPOS>MOLECULE
ZINC18101382
   30    32     0     0     0
SMALL
USER_CHARGES
(3Z)-5-bromo-3-phenacylidene-indolin-2-one
@<TRIPOS>ATOM
      1 C1         -4.3402    6.2582    0.4877 C.ar      1 <0>        -0.0890
      2 C2         -3.0717    6.8119    0.4853 C.ar      1 <0>        -0.1299
      3 C3         -1.9621    6.0008    0.3723 C.ar      1 <0>        -0.0618
      4 C4         -2.1207    4.6173    0.2600 C.ar      1 <0>        -0.1586
      5 C5         -3.4044    4.0658    0.2577 C.ar      1 <0>        -0.0783
      6 C6         -4.5049    4.8885    0.3767 C.ar      1 <0>        -0.1309
      7 C7         -0.9365    3.7417    0.1379 C.2       1 <0>         0.3906
      8 O1          0.1796    4.2252    0.1352 O.2       1 <0>        -0.3874
      9 C8         -1.1072    2.2873    0.0200 C.2       1 <0>        -0.1070
     10 C9         -0.0172    1.4750   -0.0098 C.2       1 <0>        -0.0696
     11 C10         0.0135    0.0178   -0.2533 C.ar      1 <0>        -0.1280
     12 C11        -0.9786   -0.9265   -0.5068 C.ar      1 <0>        -0.0168
     13 C12        -0.6314   -2.2493   -0.6982 C.ar      1 <0>        -0.1230
     14 C13         0.6988   -2.6333   -0.6384 C.ar      1 <0>        -0.0372
     15 C14         1.6894   -1.7041   -0.3876 C.ar      1 <0>        -0.1379
     16 C15         1.3606   -0.3681   -0.1917 C.ar      1 <0>         0.1833
     17 N1          2.1504    0.7473    0.0712 N.am      1 <0>        -0.6592
     18 C16         1.4053    1.8598    0.1892 C.2       1 <0>         0.5406
     19 O2          1.8198    2.9790    0.4169 O.2       1 <0>        -0.4280
     20 Br1        -1.9721   -3.5376   -1.0428 Br        1 <0>        -0.0363
     21 H1         -5.2057    6.8982    0.5761 H         1 <0>         0.1284
     22 H2         -2.9505    7.8816    0.5719 H         1 <0>         0.1305
     23 H3         -0.9728    6.4341    0.3710 H         1 <0>         0.1349
     24 H4         -3.5345    2.9975    0.1671 H         1 <0>         0.1310
     25 H5         -5.4976    4.4633    0.3789 H         1 <0>         0.1306
     26 H6         -2.0985    1.8634   -0.0431 H         1 <0>         0.1551
     27 H7         -2.0148   -0.6255   -0.5530 H         1 <0>         0.1425
     28 H8          0.9635   -3.6694   -0.7897 H         1 <0>         0.1458
     29 H9          2.7222   -2.0166   -0.3436 H         1 <0>         0.1424
     30 H10         3.1162    0.7249    0.1578 H         1 <0>         0.4233
@<TRIPOS>BOND
     1    1    6 ar
     2    1    2 ar
     3    1   21 1
     4    2    3 ar
     5    2   22 1
     6    3    4 ar
     7    3   23 1
     8    4    5 ar
     9    4    7 1
    10    5    6 ar
    11    5   24 1
    12    6   25 1
    13    7    8 2
    14    7    9 1
    15    9   10 2
    16    9   26 1
    17   10   18 1
    18   10   11 1
    19   11   16 ar
    20   11   12 ar
    21   12   13 ar
    22   12   27 1
    23   13   14 ar
    24   13   20 1
    25   14   15 ar
    26   14   28 1
    27   15   16 ar
    28   15   29 1
    29   16   17 1
    30   17   18 am
    31   17   30 1
    32   18   19 2
@<TRIPOS>MOLECULE
ZINC03188437
   30    32     0     0     0
SMALL
USER_CHARGES
(3E)-5-bromo-3-phenacylidene-indolin-2-one
@<TRIPOS>ATOM
      1 C1          0.0834   -0.0695   -0.3393 C.ar      1 <0>        -0.0843
      2 C2          0.1255    1.2636   -0.7094 C.ar      1 <0>        -0.1312
      3 C3          1.2616    2.0108   -0.4795 C.ar      1 <0>        -0.0733
      4 C4          2.3716    1.4192    0.1286 C.ar      1 <0>        -0.1638
      5 C5          2.3219    0.0731    0.4996 C.ar      1 <0>        -0.0585
      6 C6          1.1793   -0.6621    0.2636 C.ar      1 <0>        -0.1312
      7 C7          3.5927    2.2134    0.3778 C.2       1 <0>         0.4153
      8 O1          4.5575    1.6954    0.9071 O.2       1 <0>        -0.4275
      9 C8          3.6412    3.6285   -0.0136 C.2       1 <0>        -0.1192
     10 C9          4.8078    4.3206    0.0811 C.2       1 <0>        -0.0623
     11 C10         6.1811    3.7748    0.0817 C.ar      1 <0>        -0.1327
     12 C11         6.6921    2.4821   -0.0070 C.ar      1 <0>         0.0008
     13 C12         8.0583    2.2830    0.0211 C.ar      1 <0>        -0.1283
     14 C13         8.9153    3.3659    0.1366 C.ar      1 <0>        -0.0368
     15 C14         8.4178    4.6512    0.2252 C.ar      1 <0>        -0.1427
     16 C15         7.0460    4.8727    0.1992 C.ar      1 <0>         0.1722
     17 N1          6.2993    6.0451    0.2700 N.am      1 <0>        -0.6652
     18 C16         4.9811    5.7926    0.2004 C.2       1 <0>         0.5664
     19 O2          4.0906    6.6187    0.2324 O.2       1 <0>        -0.4798
     20 Br1         8.7604    0.5312   -0.0988 Br        1 <0>        -0.0393
     21 H1         -0.8090   -0.6498   -0.5214 H         1 <0>         0.1294
     22 H2         -0.7317    1.7184   -1.1835 H         1 <0>         0.1318
     23 H3          1.2932    3.0508   -0.7692 H         1 <0>         0.1330
     24 H4          3.1763   -0.3904    0.9704 H         1 <0>         0.1360
     25 H5          1.1397   -1.7028    0.5495 H         1 <0>         0.1315
     26 H6          2.7337    4.1282   -0.3833 H         1 <0>         0.1628
     27 H7          6.0229    1.6392   -0.0970 H         1 <0>         0.1597
     28 H8          9.9827    3.2031    0.1580 H         1 <0>         0.1440
     29 H9          9.0966    5.4865    0.3145 H         1 <0>         0.1412
     30 H10         6.8074    7.0156    0.3700 H         1 <0>         0.4523
@<TRIPOS>BOND
     1    1    6 ar
     2    1    2 ar
     3    1   21 1
     4    2    3 ar
     5    2   22 1
     6    3    4 ar
     7    3   23 1
     8    4    5 ar
     9    4    7 1
    10    5    6 ar
    11    5   24 1
    12    6   25 1
    13    7    8 2
    14    7    9 1
    15    9   10 2
    16    9   26 1
    17   10   18 1
    18   10   11 1
    19   11   16 ar
    20   11   12 ar
    21   12   13 ar
    22   12   27 1
    23   13   14 ar
    24   13   20 1
    25   14   15 ar
    26   14   28 1
    27   15   16 ar
    28   15   29 1
    29   16   17 1
    30   17   18 am
    31   17   30 1
    32   18   19 2
@<TRIPOS>MOLECULE
ZINC12495394
   33    34     0     0     0
SMALL
USER_CHARGES

@<TRIPOS>ATOM
      1 C1         -0.0182    1.3758   -0.0339 C.ar      1 <0>        -0.0267
      2 C2          1.0130    1.8114    0.7781 C.ar      1 <0>        -0.1400
      3 C3          2.2237    1.1388    0.7813 C.ar      1 <0>         0.1633
      4 C4          2.3992    0.0233   -0.0351 C.ar      1 <0>         0.0945
      5 C5          1.3605   -0.4077   -0.8468 C.ar      1 <0>         0.0079
      6 C6          0.1552    0.2693   -0.8441 C.ar      1 <0>        -0.0543
      7 N1         -0.9525   -0.1918   -1.7110 N.pl3     1 <0>         0.0362
      8 O1         -2.0073    0.3991   -1.7098 O.2       1 <0>        -0.1575
      9 O2         -0.8025   -1.1594   -2.4202 O.3       1 <0>        -0.1467
     10 N2          3.6218   -0.6608   -0.0364 N.pl3     1 <0>        -0.6172
     11 C7          3.6419   -2.0051    0.0580 C.2       1 <0>         0.5046
     12 S1          2.1731   -2.8846    0.0681 S.2       1 <0>        -0.4583
     13 N3          4.8183   -2.6570    0.1444 N.am      1 <0>        -0.6346
     14 C8          4.8384   -4.0013    0.2387 C.2       1 <0>         0.5282
     15 O3          3.7957   -4.6257    0.2459 O.2       1 <0>        -0.3705
     16 C9          6.1270   -4.7155    0.3334 C.ar      1 <0>        -0.1310
     17 C10         7.3272   -4.0005    0.3312 C.ar      1 <0>        -0.0645
     18 C11         8.5270   -4.6728    0.4203 C.ar      1 <0>        -0.1116
     19 C12         8.5456   -6.0554    0.5120 C.ar      1 <0>         0.0048
     20 C13         7.3607   -6.7711    0.5143 C.ar      1 <0>        -0.1085
     21 C14         6.1515   -6.1096    0.4314 C.ar      1 <0>         0.0296
     22 Cl1         4.6657   -7.0074    0.4416 Cl        1 <0>        -0.0039
     23 Cl2        10.0616   -6.8938    0.6238 Cl        1 <0>        -0.0388
     24 O4          3.2387    1.5662    1.5789 O.3       1 <0>        -0.4884
     25 H1         -0.9631    1.8989   -0.0318 H         1 <0>         0.1631
     26 H2          0.8743    2.6765    1.4096 H         1 <0>         0.1614
     27 H3          1.4933   -1.2717   -1.4810 H         1 <0>         0.1768
     28 H4          4.4538   -0.1669   -0.1052 H         1 <0>         0.4170
     29 H5          5.6505   -2.1587    0.1386 H         1 <0>         0.4106
     30 H6          7.3149   -2.9229    0.2595 H         1 <0>         0.1413
     31 H7          9.4552   -4.1206    0.4184 H         1 <0>         0.1512
     32 H8          7.3818   -7.8485    0.5856 H         1 <0>         0.1568
     33 H9          3.2408    1.1681    2.4601 H         1 <0>         0.4054
@<TRIPOS>BOND
     1    1    6 ar
     2    1    2 ar
     3    1   25 1
     4    2    3 ar
     5    2   26 1
     6    3    4 ar
     7    3   24 1
     8    4    5 ar
     9    4   10 1
    10    5    6 ar
    11    5   27 1
    12    6    7 1
    13    7    8 2
    14    7    9 1
    15   10   11 1
    16   10   28 1
    17   11   12 2
    18   11   13 1
    19   13   14 am
    20   13   29 1
    21   14   15 2
    22   14   16 1
    23   16   21 ar
    24   16   17 ar
    25   17   18 ar
    26   17   30 1
    27   18   19 ar
    28   18   31 1
    29   19   20 ar
    30   19   23 1
    31   20   21 ar
    32   20   32 1
    33   21   22 1
    34   24   33 1
@<TRIPOS>MOLECULE
ZINC04280782
   31    32     0     0     0
SMALL
USER_CHARGES
1-(4-methoxyphenyl)-3-(4-pyridyl)prop-2-en-1-one
@<TRIPOS>ATOM
      1 C1         -1.2606   10.4719    0.0665 C.3       1 <0>         0.0234
      2 O1         -2.5358    9.8271    0.0686 O.3       1 <0>        -0.3115
      3 C2         -2.5400    8.4701    0.0612 C.ar      1 <0>         0.1618
      4 C3         -3.7473    7.7805    0.0628 C.ar      1 <0>        -0.1644
      5 C4         -3.7559    6.4038    0.0548 C.ar      1 <0>        -0.0195
      6 C5         -2.5485    5.6993    0.0452 C.ar      1 <0>        -0.2035
      7 C6         -1.3368    6.3964    0.0491 C.ar      1 <0>        -0.0302
      8 C7         -1.3369    7.7732    0.0517 C.ar      1 <0>        -0.2232
      9 C8         -2.5530    4.2229    0.0372 C.2       1 <0>         0.4274
     10 O2         -3.6090    3.6175    0.0390 O.2       1 <0>        -0.4574
     11 C9         -1.2864    3.4865    0.0272 C.2       1 <0>        -0.2141
     12 C10        -1.2906    2.1381    0.0198 C.2       1 <0>        -0.0256
     13 C11        -0.0169    1.3976    0.0097 C.ar      1 <0>        -0.0328
     14 C12         1.2106    2.0745    0.0016 C.ar      1 <0>        -0.1580
     15 C13         2.3786    1.3398   -0.0139 C.ar      1 <0>         0.1012
     16 N1          2.3501    0.0213   -0.0207 N.ar      1 <0>        -0.4800
     17 C14         1.2183   -0.6557   -0.0131 C.ar      1 <0>         0.1011
     18 C15         0.0021   -0.0041    0.0020 C.ar      1 <0>        -0.1505
     19 H1         -0.7006   10.1725    0.9524 H         1 <0>         0.0596
     20 H2         -0.7084   10.1822   -0.8275 H         1 <0>         0.0596
     21 H3         -1.4001   11.5530    0.0730 H         1 <0>         0.1047
     22 H4         -4.6796    8.3256    0.0698 H         1 <0>         0.1395
     23 H5         -4.6941    5.8689    0.0557 H         1 <0>         0.1424
     24 H6         -0.4018    5.8558    0.0458 H         1 <0>         0.1343
     25 H7         -0.4013    8.3125    0.0501 H         1 <0>         0.1363
     26 H8         -0.3495    4.0236    0.0256 H         1 <0>         0.1356
     27 H9         -2.2275    1.6010    0.0214 H         1 <0>         0.1412
     28 H10         1.2417    3.1540    0.0068 H         1 <0>         0.1393
     29 H11         3.3295    1.8518   -0.0202 H         1 <0>         0.1602
     30 H12         1.2438   -1.7354   -0.0191 H         1 <0>         0.1611
     31 H13        -0.9207   -0.5651    0.0082 H         1 <0>         0.1421
@<TRIPOS>BOND
     1    1    2 1
     2    1   19 1
     3    1   20 1
     4    1   21 1
     5    2    3 1
     6    3    8 ar
     7    3    4 ar
     8    4    5 ar
     9    4   22 1
    10    5    6 ar
    11    5   23 1
    12    6    7 ar
    13    6    9 1
    14    7    8 ar
    15    7   24 1
    16    8   25 1
    17    9   10 2
    18    9   11 1
    19   11   12 2
    20   11   26 1
    21   12   13 1
    22   12   27 1
    23   13   18 ar
    24   13   14 ar
    25   14   15 ar
    26   14   28 1
    27   15   16 ar
    28   15   29 1
    29   16   17 ar
    30   17   18 ar
    31   17   30 1
    32   18   31 1
