@<TRIPOS>MOLECULE
ZINC00121480
   28    29     0     0     0
SMALL
USER_CHARGES

@<TRIPOS>ATOM
      1 C1          0.9603   -0.4516   -1.2269 C.ar      1 <0>        -0.1074
      2 C2          2.1311    0.2598   -1.4013 C.ar      1 <0>        -0.0881
      3 C3          2.3516    1.4196   -0.6794 C.ar      1 <0>        -0.0494
      4 C4          1.4000    1.8697    0.2190 C.ar      1 <0>        -0.0886
      5 C5          0.2275    1.1619    0.3971 C.ar      1 <0>        -0.1323
      6 C6          0.0037   -0.0019   -0.3264 C.ar      1 <0>         0.1652
      7 N1         -1.1842   -0.7209   -0.1480 N.am      1 <0>        -0.6785
      8 C7         -1.1823   -2.0640   -0.2605 C.2       1 <0>         0.7062
      9 O1         -0.1345   -2.6590   -0.4232 O.2       1 <0>        -0.5477
     10 N2         -2.3419   -2.7475   -0.1927 N.am      1 <0>        -0.6788
     11 C8         -2.3307   -4.1473   -0.2005 C.ar      1 <0>         0.1819
     12 C9         -1.2809   -4.8378    0.3911 C.ar      1 <0>        -0.1041
     13 C10        -1.2716   -6.2187    0.3823 C.ar      1 <0>        -0.0752
     14 C11        -2.3070   -6.9153   -0.2157 C.ar      1 <0>        -0.0468
     15 C12        -3.3552   -6.2298   -0.8064 C.ar      1 <0>        -0.0102
     16 C13        -3.3718   -4.8475   -0.7946 C.ar      1 <0>        -0.1282
     17 Cl1        -4.6526   -7.1067   -1.5557 Cl        1 <0>        -0.0402
     18 Cl2        -2.2916   -8.6512   -0.2258 Cl        1 <0>        -0.0450
     19 Cl3         3.8246    2.3112   -0.9006 Cl        1 <0>        -0.0669
     20 H1          0.7869   -1.3545   -1.7936 H         1 <0>         0.1457
     21 H2          2.8755   -0.0895   -2.1016 H         1 <0>         0.1386
     22 H3          1.5746    2.7749    0.7815 H         1 <0>         0.1395
     23 H4         -0.5145    1.5132    1.0989 H         1 <0>         0.1366
     24 H5         -2.0086   -0.2525    0.0565 H         1 <0>         0.4122
     25 H6         -3.1842   -2.2695   -0.1385 H         1 <0>         0.4136
     26 H7         -0.4720   -4.2950    0.8574 H         1 <0>         0.1524
     27 H8         -0.4552   -6.7556    0.8424 H         1 <0>         0.1487
     28 H9         -4.1917   -4.3128   -1.2511 H         1 <0>         0.1468
@<TRIPOS>BOND
     1    1    6 ar
     2    1    2 ar
     3    1   20 1
     4    2    3 ar
     5    2   21 1
     6    3    4 ar
     7    3   19 1
     8    4    5 ar
     9    4   22 1
    10    5    6 ar
    11    5   23 1
    12    6    7 1
    13    7    8 am
    14    7   24 1
    15    8    9 2
    16    8   10 am
    17   10   11 1
    18   10   25 1
    19   11   16 ar
    20   11   12 ar
    21   12   13 ar
    22   12   26 1
    23   13   14 ar
    24   13   27 1
    25   14   15 ar
    26   14   18 1
    27   15   16 ar
    28   15   17 1
    29   16   28 1
@<TRIPOS>MOLECULE
ZINC03895072
   48    51     0     0     0
SMALL
USER_CHARGES

@<TRIPOS>ATOM
      1 C1         -0.0187    1.5258    0.0104 C.3       1 <0>        -0.1225
      2 C2          1.4167    2.0553   -0.0004 C.3       1 <0>        -0.1161
      3 C3          2.1328    1.5619   -1.2592 C.3       1 <0>        -0.1264
      4 C4          2.1536    0.0321   -1.2676 C.3       1 <0>         0.1649
      5 C5          0.7182   -0.4975   -1.2568 C.3       1 <0>        -0.1288
      6 C6          0.0021   -0.0041    0.0020 C.3       1 <0>        -0.1177
      7 N1          2.8393   -0.4404   -2.4730 N.am      1 <0>        -0.7458
      8 C7          3.4244   -1.6545   -2.4833 C.2       1 <0>         0.7060
      9 O1          3.3831   -2.3576   -1.4922 O.2       1 <0>        -0.5826
     10 N2          4.0552   -2.0891   -3.5922 N.am      1 <0>        -0.7429
     11 C8          4.6912   -3.4088   -3.6034 C.3       1 <0>         0.2031
     12 C9          3.6380   -4.4848   -3.3315 C.3       1 <0>        -0.1216
     13 C10         4.3021   -5.8631   -3.3432 C.3       1 <0>        -0.0828
     14 C11         4.9416   -6.1094   -4.7112 C.3       1 <0>        -0.1114
     15 C12         5.9948   -5.0335   -4.9830 C.3       1 <0>        -0.0801
     16 C13         5.3307   -3.6552   -4.9713 C.3       1 <0>        -0.1145
     17 C14         7.0727   -5.0894   -3.8986 C.3       1 <0>        -0.1114
     18 C15         6.4332   -4.8430   -2.5307 C.3       1 <0>        -0.0828
     19 C16         5.3800   -5.9190   -2.2589 C.3       1 <0>        -0.1089
     20 C17         5.7691   -3.4648   -2.5190 C.3       1 <0>        -0.1218
     21 H1         -0.5289    1.8773    0.9072 H         1 <0>         0.0641
     22 H2         -0.5459    1.8868   -0.8726 H         1 <0>         0.0621
     23 H3          1.4019    3.1452    0.0056 H         1 <0>         0.0671
     24 H4          1.9439    1.6943    0.8826 H         1 <0>         0.0656
     25 H5          1.6057    1.9230   -2.1423 H         1 <0>         0.0667
     26 H6          3.1554    1.9392   -1.2670 H         1 <0>         0.0677
     27 H7          2.6808   -0.3290   -0.3846 H         1 <0>         0.0878
     28 H8          0.1910   -0.1364   -2.1398 H         1 <0>         0.0608
     29 H9          0.7330   -1.5874   -1.2628 H         1 <0>         0.0674
     30 H10         0.5293   -0.3651    0.8851 H         1 <0>         0.0646
     31 H11        -1.0205   -0.3814    0.0098 H         1 <0>         0.0643
     32 H12         2.8723    0.1206   -3.2636 H         1 <0>         0.3932
     33 H13         4.0882   -1.5281   -4.3828 H         1 <0>         0.3930
     34 H14         3.1824   -4.3093   -2.3570 H         1 <0>         0.0874
     35 H15         2.8700   -4.4450   -4.1041 H         1 <0>         0.0567
     36 H16         3.5518   -6.6296   -3.1496 H         1 <0>         0.0713
     37 H17         5.4148   -7.0914   -4.7195 H         1 <0>         0.0646
     38 H18         4.1737   -6.0696   -5.4837 H         1 <0>         0.0619
     39 H19         6.4504   -5.2090   -5.9576 H         1 <0>         0.0745
     40 H20         4.5628   -3.6153   -5.7439 H         1 <0>         0.0673
     41 H21         6.0810   -2.8886   -5.1650 H         1 <0>         0.0673
     42 H22         7.5459   -6.0713   -3.9070 H         1 <0>         0.0646
     43 H23         7.8231   -4.3228   -4.0923 H         1 <0>         0.0619
     44 H24         7.2012   -4.8829   -1.7581 H         1 <0>         0.0714
     45 H25         4.9244   -5.7435   -1.2843 H         1 <0>         0.0649
     46 H26         5.8532   -6.9009   -2.2672 H         1 <0>         0.0619
     47 H27         6.5194   -2.6982   -2.7126 H         1 <0>         0.0568
     48 H28         5.3135   -3.2893   -1.5444 H         1 <0>         0.0874
@<TRIPOS>BOND
     1    1    6 1
     2    1    2 1
     3    1   21 1
     4    1   22 1
     5    2    3 1
     6    2   23 1
     7    2   24 1
     8    3    4 1
     9    3   25 1
    10    3   26 1
    11    4    5 1
    12    4    7 1
    13    4   27 1
    14    5    6 1
    15    5   28 1
    16    5   29 1
    17    6   30 1
    18    6   31 1
    19    7    8 am
    20    7   32 1
    21    8    9 2
    22    8   10 am
    23   10   11 1
    24   10   33 1
    25   11   16 1
    26   11   20 1
    27   11   12 1
    28   12   13 1
    29   12   34 1
    30   12   35 1
    31   13   19 1
    32   13   14 1
    33   13   36 1
    34   14   15 1
    35   14   37 1
    36   14   38 1
    37   15   16 1
    38   15   17 1
    39   15   39 1
    40   16   40 1
    41   16   41 1
    42   17   18 1
    43   17   42 1
    44   17   43 1
    45   18   19 1
    46   18   20 1
    47   18   44 1
    48   19   45 1
    49   19   46 1
    50   20   47 1
    51   20   48 1
@<TRIPOS>MOLECULE
ZINC12416741
   28    29     0     0     0
SMALL
USER_CHARGES

@<TRIPOS>ATOM
      1 C1          0.0097    1.3775    0.6732 C.ar      1 <0>        -0.1351
      2 C2          0.2637    0.2182    1.3829 C.ar      1 <0>        -0.0994
      3 C3          1.4548   -0.4570    1.2021 C.ar      1 <0>        -0.1204
      4 C4          2.3979    0.0294    0.3063 C.ar      1 <0>         0.1603
      5 C5          2.1398    1.1939   -0.4050 C.ar      1 <0>        -0.1467
      6 C6          0.9467    1.8645   -0.2196 C.ar      1 <0>        -0.0997
      7 N1          3.6059   -0.6522    0.1210 N.am      1 <0>        -0.6820
      8 C7          3.6434   -1.9959    0.2188 C.2       1 <0>         0.7035
      9 O1          2.6135   -2.6231    0.3741 O.2       1 <0>        -0.5516
     10 N2          4.8226   -2.6443    0.1444 N.am      1 <0>        -0.6819
     11 C8          4.8525   -4.0433    0.1369 C.ar      1 <0>         0.1605
     12 C9          3.8237   -4.7580   -0.4624 C.ar      1 <0>        -0.1206
     13 C10         3.8564   -6.1388   -0.4686 C.ar      1 <0>        -0.0993
     14 C11         4.9121   -6.8095    0.1211 C.ar      1 <0>        -0.1352
     15 C12         5.9379   -6.1007    0.7190 C.ar      1 <0>        -0.0996
     16 C13         5.9140   -4.7198    0.7235 C.ar      1 <0>        -0.1469
     17 H1         -0.9244    1.9013    0.8131 H         1 <0>         0.1242
     18 H2         -0.4700   -0.1593    2.0797 H         1 <0>         0.1263
     19 H3          1.6527   -1.3622    1.7570 H         1 <0>         0.1355
     20 H4          2.8714    1.5749   -1.1021 H         1 <0>         0.1251
     21 H5          0.7453    2.7700   -0.7726 H         1 <0>         0.1272
     22 H6          4.4163   -0.1575   -0.0777 H         1 <0>         0.4087
     23 H7          5.6505   -2.1412    0.0961 H         1 <0>         0.4087
     24 H8          2.9986   -4.2348   -0.9227 H         1 <0>         0.1355
     25 H9          3.0563   -6.6952   -0.9341 H         1 <0>         0.1264
     26 H10         4.9354   -7.8892    0.1149 H         1 <0>         0.1242
     27 H11         6.7610   -6.6274    1.1789 H         1 <0>         0.1272
     28 H12         6.7179   -4.1667    1.1864 H         1 <0>         0.1251
@<TRIPOS>BOND
     1    1    6 ar
     2    1    2 ar
     3    1   17 1
     4    2    3 ar
     5    2   18 1
     6    3    4 ar
     7    3   19 1
     8    4    5 ar
     9    4    7 1
    10    5    6 ar
    11    5   20 1
    12    6   21 1
    13    7    8 am
    14    7   22 1
    15    8    9 2
    16    8   10 am
    17   10   11 1
    18   10   23 1
    19   11   16 ar
    20   11   12 ar
    21   12   13 ar
    22   12   24 1
    23   13   14 ar
    24   13   25 1
    25   14   15 ar
    26   14   26 1
    27   15   16 ar
    28   15   27 1
    29   16   28 1
