@<TRIPOS>MOLECULE
ZINC02184757
   47    50     0     0     0
SMALL
USER_CHARGES

@<TRIPOS>ATOM
      1 C1          0.4861    1.6342    0.3060 C.3       1 <0>        -0.1543
      2 C2          0.5566    0.1061    0.3375 C.3       1 <0>        -0.1258
      3 C3          1.1512   -0.4042   -0.9766 C.3       1 <0>        -0.1145
      4 C4          1.2217   -1.9322   -0.9451 C.3       1 <0>        -0.0830
      5 C5          1.8074   -2.4349   -2.2395 C.ar      1 <0>        -0.0851
      6 C6          0.9769   -2.7200   -3.3077 C.ar      1 <0>        -0.1007
      7 C7          1.5104   -3.1808   -4.4953 C.ar      1 <0>        -0.1225
      8 C8          2.8829   -3.3577   -4.6160 C.ar      1 <0>         0.1354
      9 C9          3.7143   -3.0703   -3.5409 C.ar      1 <0>        -0.1455
     10 C10         3.1747   -2.6045   -2.3581 C.ar      1 <0>        -0.0947
     11 N1          3.4257   -3.8240   -5.8155 N.pl3     1 <0>        -1.0559
     12 S1          4.7532   -3.0797   -6.4683 S.o2      1 <0>         2.6945
     13 O1          5.7361   -3.0302   -5.4433 O.2       1 <0>        -0.9458
     14 O2          4.9918   -3.7021   -7.7232 O.2       1 <0>        -0.9453
     15 C11         4.2993   -1.4121   -6.8115 C.ar      1 <0>        -0.6855
     16 C12         4.9057   -0.3733   -6.1587 C.ar      1 <0>         0.0442
     17 C13         4.5877    0.9646   -6.3893 C.ar      1 <0>        -0.1485
     18 C14         3.6164    1.2941   -7.3165 C.ar      1 <0>         0.2166
     19 C15         3.0091    0.2279   -7.9721 C.ar      1 <0>        -0.1271
     20 C16         3.3110   -1.1186   -7.7656 C.ar      1 <0>         0.0559
     21 C17         2.5977   -2.0609   -8.5263 C.ar      1 <0>        -0.0886
     22 C18         1.6608   -1.6175   -9.4211 C.ar      1 <0>        -0.1008
     23 C19         1.3749   -0.2670   -9.6192 C.ar      1 <0>        -0.0110
     24 C20         2.0479    0.6918   -8.8826 C.ar      1 <0>        -0.1502
     25 C21         2.0978    2.1524   -8.7469 C.2       1 <0>         0.5789
     26 O3          1.4173    2.9517   -9.3624 O.2       1 <0>        -0.4732
     27 N2          3.0372    2.4554   -7.8123 N.am      1 <0>        -0.6548
     28 H1          1.4890    2.0416    0.1786 H         1 <0>         0.0536
     29 H2         -0.1434    1.9518   -0.5252 H         1 <0>         0.0530
     30 H3          0.0624    1.9977    1.2422 H         1 <0>         0.0544
     31 H4          1.1861   -0.2115    1.1687 H         1 <0>         0.0624
     32 H5         -0.4464   -0.3013    0.4649 H         1 <0>         0.0617
     33 H6          0.5217   -0.0866   -1.8078 H         1 <0>         0.0624
     34 H7          2.1541    0.0033   -1.1040 H         1 <0>         0.0637
     35 H8          1.8512   -2.2499   -0.1139 H         1 <0>         0.0742
     36 H9          0.2188   -2.3397   -0.8177 H         1 <0>         0.0731
     37 H10        -0.0901   -2.5826   -3.2131 H         1 <0>         0.1263
     38 H11         0.8612   -3.4037   -5.3291 H         1 <0>         0.1278
     39 H12         4.7818   -3.2071   -3.6314 H         1 <0>         0.1551
     40 H13         3.8209   -2.3766   -1.5233 H         1 <0>         0.1297
     41 H14         3.0251   -4.5838   -6.2662 H         1 <0>         0.4272
     42 H15         5.6681   -0.6011   -5.4285 H         1 <0>         0.1541
     43 H16         5.0997    1.7432   -5.8434 H         1 <0>         0.1466
     44 H17         2.7858   -3.1177   -8.4073 H         1 <0>         0.1436
     45 H18         1.1176   -2.3486  -10.0014 H         1 <0>         0.1446
     46 H19         0.6257    0.0288  -10.3387 H         1 <0>         0.1455
     47 H20         3.2700    3.3542   -7.5316 H         1 <0>         0.4285
@<TRIPOS>BOND
     1    1    2 1
     2    1   28 1
     3    1   29 1
     4    1   30 1
     5    2    3 1
     6    2   31 1
     7    2   32 1
     8    3    4 1
     9    3   33 1
    10    3   34 1
    11    4    5 1
    12    4   35 1
    13    4   36 1
    14    5   10 ar
    15    5    6 ar
    16    6    7 ar
    17    6   37 1
    18    7    8 ar
    19    7   38 1
    20    8    9 ar
    21    8   11 1
    22    9   10 ar
    23    9   39 1
    24   10   40 1
    25   11   12 1
    26   11   41 1
    27   12   13 2
    28   12   14 2
    29   12   15 1
    30   15   20 ar
    31   15   16 ar
    32   16   17 ar
    33   16   42 1
    34   17   18 ar
    35   17   43 1
    36   18   27 1
    37   18   19 ar
    38   19   24 ar
    39   19   20 ar
    40   20   21 ar
    41   21   22 ar
    42   21   44 1
    43   22   23 ar
    44   22   45 1
    45   23   24 ar
    46   23   46 1
    47   24   25 1
    48   25   26 2
    49   25   27 am
    50   27   47 1
@<TRIPOS>MOLECULE
ZINC02184757
   46    49     0     0     0
SMALL
USER_CHARGES

@<TRIPOS>ATOM
      1 C1         -0.0187    1.5258    0.0104 C.3       1 <0>        -0.1522
      2 C2          0.0021   -0.0041    0.0020 C.3       1 <0>        -0.1253
      3 C3          0.7182   -0.4975   -1.2568 C.3       1 <0>        -0.1153
      4 C4          0.7390   -2.0273   -1.2652 C.3       1 <0>        -0.0585
      5 C5          1.4443   -2.5133   -2.5051 C.ar      1 <0>        -0.1929
      6 C6          0.7246   -2.7413   -3.6636 C.ar      1 <0>        -0.0746
      7 C7          1.3679   -3.1867   -4.8017 C.ar      1 <0>        -0.1806
      8 C8          2.7395   -3.4057   -4.7816 C.ar      1 <0>         0.2758
      9 C9          3.4594   -3.1757   -3.6161 C.ar      1 <0>        -0.2625
     10 C10         2.8107   -2.7249   -2.4833 C.ar      1 <0>        -0.0610
     11 N1          3.3932   -3.8566   -5.9307 N.2       1 <0>        -1.0875
     12 S1          5.0283   -4.1170   -5.9047 S.o2      1 <0>         2.6004
     13 O1          5.6390   -2.8469   -5.7226 O.2       1 <0>        -1.0286
     14 O2          5.2524   -5.2042   -5.0176 O.2       1 <0>        -1.0258
     15 C11         5.4928   -4.6735   -7.5107 C.ar      1 <0>        -0.6050
     16 C12         6.3205   -3.9215   -8.2996 C.ar      1 <0>         0.0017
     17 C13         6.7211   -4.3111   -9.5771 C.ar      1 <0>        -0.1319
     18 C14         6.2791   -5.5105  -10.1041 C.ar      1 <0>         0.1734
     19 C15         5.4388   -6.2639   -9.2908 C.ar      1 <0>        -0.1203
     20 C16         5.0266   -5.9017   -8.0079 C.ar      1 <0>         0.0456
     21 C17         4.1793   -6.7945   -7.3294 C.ar      1 <0>        -0.0433
     22 C18         3.8106   -7.9585   -7.9490 C.ar      1 <0>        -0.1324
     23 C19         4.2361   -8.3081   -9.2303 C.ar      1 <0>        -0.0037
     24 C20         5.0628   -7.4516   -9.9359 C.ar      1 <0>        -0.1755
     25 C21         5.7405   -7.3859  -11.2362 C.2       1 <0>         0.5822
     26 O3          5.6828   -8.2244  -12.1161 O.2       1 <0>        -0.4986
     27 N2          6.4434   -6.2235  -11.2850 N.am      1 <0>        -0.6545
     28 H1          1.0039    1.9031    0.0027 H         1 <0>         0.0525
     29 H2         -0.5459    1.8868   -0.8726 H         1 <0>         0.0524
     30 H3         -0.5289    1.8773    0.9072 H         1 <0>         0.0482
     31 H4          0.5293   -0.3651    0.8851 H         1 <0>         0.0576
     32 H5         -1.0205   -0.3814    0.0098 H         1 <0>         0.0577
     33 H6          0.1910   -0.1364   -2.1398 H         1 <0>         0.0603
     34 H7          1.7408   -0.1202   -1.2645 H         1 <0>         0.0600
     35 H8          1.2661   -2.3884   -0.3821 H         1 <0>         0.0561
     36 H9         -0.2836   -2.4046   -1.2575 H         1 <0>         0.0569
     37 H10        -0.3418   -2.5712   -3.6784 H         1 <0>         0.1024
     38 H11         0.8051   -3.3649   -5.7061 H         1 <0>         0.1106
     39 H12         4.5258   -3.3453   -3.5971 H         1 <0>         0.0953
     40 H13         3.3706   -2.5416   -1.5781 H         1 <0>         0.0995
     41 H14         6.6810   -2.9795   -7.9136 H         1 <0>         0.1484
     42 H15         7.3763   -3.6760  -10.1548 H         1 <0>         0.1377
     43 H16         3.8250   -6.5662   -6.3350 H         1 <0>         0.1578
     44 H17         3.1594   -8.6386   -7.4201 H         1 <0>         0.1388
     45 H18         3.9154   -9.2395   -9.6729 H         1 <0>         0.1376
     46 H19         6.9828   -5.9332  -12.0372 H         1 <0>         0.4214
@<TRIPOS>BOND
     1    1    2 1
     2    1   28 1
     3    1   29 1
     4    1   30 1
     5    2    3 1
     6    2   31 1
     7    2   32 1
     8    3    4 1
     9    3   33 1
    10    3   34 1
    11    4    5 1
    12    4   35 1
    13    4   36 1
    14    5   10 ar
    15    5    6 ar
    16    6    7 ar
    17    6   37 1
    18    7    8 ar
    19    7   38 1
    20    8    9 ar
    21    8   11 1
    22    9   10 ar
    23    9   39 1
    24   10   40 1
    25   11   12 1
    26   12   13 2
    27   12   14 2
    28   12   15 1
    29   15   20 ar
    30   15   16 ar
    31   16   17 ar
    32   16   41 1
    33   17   18 ar
    34   17   42 1
    35   18   27 1
    36   18   19 ar
    37   19   24 ar
    38   19   20 ar
    39   20   21 ar
    40   21   22 ar
    41   21   43 1
    42   22   23 ar
    43   22   44 1
    44   23   24 ar
    45   23   45 1
    46   24   25 1
    47   25   26 2
    48   25   27 am
    49   27   46 1
@<TRIPOS>MOLECULE
ZINC20289393
   64    67     0     0     0
SMALL
USER_CHARGES
N'-(2-furylmethyl)-N-[(1R,2S)-2-[4-(4-methoxyphenyl)piperazin-1-yl]-1-methyl-2-(2-thienyl)ethyl]oxamide
@<TRIPOS>ATOM
      1 C1         -2.3386    6.8467    1.4474 C.3       1 <0>        -0.1622
      2 C2         -2.3959    6.0546    0.1396 C.3       1 <0>         0.1548
      3 H1         -1.5478    6.3171   -0.5099 H         1 <0>         0.1005
      4 C3         -3.7232    6.3341   -0.5682 C.3       1 <0>         0.1652
      5 H2         -3.7468    5.8619   -1.5614 H         1 <0>         0.0730
      6 C4         -4.8601    5.8106    0.2711 C.2       1 <0>        -0.1513
      7 C5         -5.5642    4.6607    0.1326 C.2       1 <0>        -0.1530
      8 C6         -6.5768    4.3824    1.0314 C.2       1 <0>        -0.1571
      9 C7         -6.8358    5.2676    2.0247 C.2       1 <0>        -0.1814
     10 S1         -5.6237    6.5402    1.7104 S.3       1 <0>         0.0857
     11 N1         -3.8813    7.7822   -0.7583 N.3       1 <0>        -0.5272
     12 C8         -5.1862    8.0953   -1.3572 C.3       1 <0>         0.0531
     13 C9         -5.3438    9.6139   -1.4650 C.3       1 <0>         0.0608
     14 N2         -4.2492   10.1608   -2.2788 N.pl3     1 <0>        -0.4869
     15 C10        -2.9443    9.8477   -1.6800 C.3       1 <0>         0.0536
     16 C11        -2.7867    8.3291   -1.5722 C.3       1 <0>         0.0488
     17 C12        -4.3999   11.5402   -2.4599 C.ar      1 <0>         0.0753
     18 C13        -3.3830   12.4060   -2.0795 C.ar      1 <0>        -0.1287
     19 C14        -3.5301   13.7668   -2.2639 C.ar      1 <0>        -0.1814
     20 C15        -4.6980   14.2697   -2.8179 C.ar      1 <0>         0.1030
     21 C16        -5.7164   13.4061   -3.1933 C.ar      1 <0>        -0.1263
     22 C17        -5.5686   12.0445   -3.0149 C.ar      1 <0>        -0.0983
     23 O1         -4.8446   15.6103   -2.9935 O.3       1 <0>        -0.3190
     24 C18        -3.7561   16.4410   -2.5845 C.3       1 <0>         0.0243
     25 N3         -2.2898    4.6228    0.4309 N.am      1 <0>        -0.7086
     26 C19        -1.0772    4.0520    0.5729 C.2       1 <0>         0.5133
     27 O2         -0.0732    4.7240    0.4595 O.2       1 <0>        -0.5231
     28 C20        -0.9691    2.5913    0.8701 C.2       1 <0>         0.5107
     29 O3         -1.9731    1.9192    0.9835 O.2       1 <0>        -0.5224
     30 N4          0.2436    2.0205    1.0121 N.am      1 <0>        -0.7113
     31 C21         0.3496    0.5886    1.3034 C.3       1 <0>         0.2041
     32 C22         1.8028    0.2032    1.4063 C.2       1 <0>        -0.0445
     33 C23         2.5430    0.2182    2.5294 C.2       1 <0>        -0.1768
     34 C24         3.8402   -0.2148    2.1708 C.2       1 <0>        -0.2183
     35 C25         3.8152   -0.4684    0.8501 C.2       1 <0>        -0.0234
     36 O4          2.5771   -0.2190    0.3934 O.3       1 <0>        -0.1711
     37 H3         -1.3843    6.6457    1.9563 H         1 <0>         0.0596
     38 H4         -3.1721    6.5420    2.0974 H         1 <0>         0.0663
     39 H5         -2.4182    7.9218    1.2287 H         1 <0>         0.0824
     40 H6         -5.3377    3.9723   -0.6682 H         1 <0>         0.1333
     41 H7         -7.1533    3.4734    0.9433 H         1 <0>         0.1340
     42 H8         -7.5796    5.2148    2.8059 H         1 <0>         0.1843
     43 H9         -5.2463    7.6473   -2.3600 H         1 <0>         0.0479
     44 H10        -5.9877    7.6865   -0.7244 H         1 <0>         0.0901
     45 H11        -6.3079    9.8497   -1.9393 H         1 <0>         0.0879
     46 H12        -5.3116   10.0582   -0.4592 H         1 <0>         0.0550
     47 H13        -2.1429   10.2565   -2.3129 H         1 <0>         0.0893
     48 H14        -2.8841   10.2957   -0.6772 H         1 <0>         0.0572
     49 H15        -1.8231    8.0923   -1.0974 H         1 <0>         0.0914
     50 H16        -2.8194    7.8838   -2.5775 H         1 <0>         0.0504
     51 H17        -2.4756   12.0150   -1.6433 H         1 <0>         0.1296
     52 H18        -2.7375   14.4399   -1.9721 H         1 <0>         0.1281
     53 H19        -6.6253   13.7985   -3.6249 H         1 <0>         0.1327
     54 H20        -6.3616   11.3722   -3.3073 H         1 <0>         0.1314
     55 H21        -4.0048   17.4943   -2.7811 H         1 <0>         0.1015
     56 H22        -2.8528   16.1660   -3.1488 H         1 <0>         0.0556
     57 H23        -3.5729   16.3021   -1.5088 H         1 <0>         0.0553
     58 H24        -3.1999    4.0135    0.5337 H         1 <0>         0.4343
     59 H25         1.1537    2.6297    0.9093 H         1 <0>         0.4419
     60 H26        -0.1561    0.3697    2.2554 H         1 <0>         0.1047
     61 H27        -0.1259    0.0138    0.4950 H         1 <0>         0.0907
     62 H28         2.2103    0.5063    3.5157 H         1 <0>         0.1519
     63 H29         4.6886   -0.3211    2.8307 H         1 <0>         0.1524
     64 H30         4.6481   -0.8183    0.2583 H         1 <0>         0.2067
@<TRIPOS>BOND
     1    1    2 1
     2    1   37 1
     3    1   38 1
     4    1   39 1
     5    2    3 1
     6    2    4 1
     7    2   25 1
     8    4    5 1
     9    4    6 1
    10    4   11 1
    11    6   10 1
    12    6    7 2
    13    7    8 1
    14    7   40 1
    15    8    9 2
    16    8   41 1
    17    9   10 1
    18    9   42 1
    19   11   16 1
    20   11   12 1
    21   12   13 1
    22   12   43 1
    23   12   44 1
    24   13   14 1
    25   13   45 1
    26   13   46 1
    27   14   15 1
    28   14   17 1
    29   15   16 1
    30   15   47 1
    31   15   48 1
    32   16   49 1
    33   16   50 1
    34   17   22 ar
    35   17   18 ar
    36   18   19 ar
    37   18   51 1
    38   19   20 ar
    39   19   52 1
    40   20   21 ar
    41   20   23 1
    42   21   22 ar
    43   21   53 1
    44   22   54 1
    45   23   24 1
    46   24   55 1
    47   24   56 1
    48   24   57 1
    49   25   26 am
    50   25   58 1
    51   26   27 2
    52   26   28 1
    53   28   29 2
    54   28   30 am
    55   30   31 1
    56   30   59 1
    57   31   32 1
    58   31   60 1
    59   31   61 1
    60   32   36 1
    61   32   33 2
    62   33   34 1
    63   33   62 1
    64   34   35 2
    65   34   63 1
    66   35   36 1
    67   35   64 1
@<TRIPOS>MOLECULE
ZINC20289396
   64    67     0     0     0
SMALL
USER_CHARGES
N'-(2-furylmethyl)-N-[(1R,2R)-2-[4-(4-methoxyphenyl)piperazin-1-yl]-1-methyl-2-(2-thienyl)ethyl]oxamide
@<TRIPOS>ATOM
      1 C1         -0.7890    0.4735   -0.9586 C.3       1 <0>        -0.1557
      2 C2         -0.2596    0.3594    0.4724 C.3       1 <0>         0.1546
      3 H1         -0.6131   -0.5697    0.9433 H         1 <0>         0.0947
      4 C3         -0.7088    1.5780    1.2811 C.3       1 <0>         0.1635
      5 H2         -0.2768    2.5032    0.8719 H         1 <0>         0.1140
      6 C4         -0.2858    1.4112    2.7178 C.2       1 <0>        -0.1855
      7 C5          0.5499    2.1813    3.4565 C.2       1 <0>        -0.1398
      8 C6          0.7928    1.8352    4.7725 C.2       1 <0>        -0.1589
      9 C7          0.1964    0.7299    5.2823 C.2       1 <0>        -0.1811
     10 S1         -0.7493    0.1435    3.8863 S.3       1 <0>         0.0592
     11 N1         -2.1712    1.6994    1.2121 N.3       1 <0>        -0.5135
     12 C8         -2.6347    2.8957    1.9288 C.3       1 <0>         0.0526
     13 C9         -4.1507    3.0290    1.7664 C.3       1 <0>         0.0597
     14 N2         -4.8047    1.8203    2.2870 N.pl3     1 <0>        -0.4854
     15 C10        -4.3412    0.6241    1.5703 C.3       1 <0>         0.0559
     16 C11        -2.8252    0.4907    1.7326 C.3       1 <0>         0.0315
     17 C12        -6.1977    1.9360    2.2213 C.ar      1 <0>         0.0759
     18 C13        -6.9420    0.9863    1.5341 C.ar      1 <0>        -0.1291
     19 C14        -8.3173    1.0981    1.4746 C.ar      1 <0>        -0.1811
     20 C15        -8.9540    2.1651    2.0910 C.ar      1 <0>         0.1027
     21 C16        -8.2109    3.1170    2.7732 C.ar      1 <0>        -0.1261
     22 C17        -6.8360    3.0037    2.8385 C.ar      1 <0>        -0.0984
     23 O1        -10.3079    2.2778    2.0268 O.3       1 <0>        -0.3191
     24 C18       -11.0100    1.2618    1.3079 C.3       1 <0>         0.0244
     25 N3          1.2041    0.3018    0.4484 N.am      1 <0>        -0.7050
     26 C19         1.8291   -0.8775    0.2608 C.2       1 <0>         0.5151
     27 O2          1.1795   -1.8915    0.1116 O.2       1 <0>        -0.5226
     28 C20         3.3223   -0.9362    0.2363 C.2       1 <0>         0.5116
     29 O3          3.9719    0.0778    0.3854 O.2       1 <0>        -0.5229
     30 N4          3.9473   -2.1155    0.0487 N.am      1 <0>        -0.7118
     31 C21         5.4109   -2.1731    0.0247 C.3       1 <0>         0.2043
     32 C22         5.8541   -3.5961   -0.1985 C.2       1 <0>        -0.0444
     33 C23         6.0742   -4.1731   -1.3935 C.2       1 <0>        -0.1769
     34 C24         6.4721   -5.5055   -1.1378 C.2       1 <0>        -0.2183
     35 C25         6.4713   -5.6629    0.1981 C.2       1 <0>        -0.0235
     36 O4          6.1017   -4.5014    0.7621 O.3       1 <0>        -0.1711
     37 H3         -0.4660   -0.4027   -1.5400 H         1 <0>         0.0598
     38 H4         -0.3936    1.3884   -1.4240 H         1 <0>         0.0618
     39 H5         -1.8880    0.5168   -0.9406 H         1 <0>         0.0824
     40 H6          1.0169    3.0539    3.0241 H         1 <0>         0.1318
     41 H7          1.4516    2.4339    5.3841 H         1 <0>         0.1318
     42 H8          0.2737    0.3121    6.2753 H         1 <0>         0.1822
     43 H9         -2.3861    2.8029    2.9963 H         1 <0>         0.0536
     44 H10        -2.1407    3.7864    1.5134 H         1 <0>         0.0876
     45 H11        -4.5035    3.9079    2.3259 H         1 <0>         0.0883
     46 H12        -4.3961    3.1499    0.7010 H         1 <0>         0.0544
     47 H13        -4.8352   -0.2666    1.9858 H         1 <0>         0.0887
     48 H14        -4.5899    0.7169    0.5028 H         1 <0>         0.0568
     49 H15        -2.4714   -0.3876    1.1728 H         1 <0>         0.0897
     50 H16        -2.5787    0.3702    2.7978 H         1 <0>         0.0650
     51 H17        -6.4460    0.1582    1.0497 H         1 <0>         0.1295
     52 H18        -8.8968    0.3571    0.9439 H         1 <0>         0.1281
     53 H19        -8.7075    3.9473    3.2531 H         1 <0>         0.1326
     54 H20        -6.2575    3.7450    3.3697 H         1 <0>         0.1314
     55 H21       -12.0892    1.4732    1.3343 H         1 <0>         0.1015
     56 H22       -10.8165    0.2837    1.7725 H         1 <0>         0.0555
     57 H23       -10.6648    1.2465    0.2636 H         1 <0>         0.0553
     58 H24         1.7930    1.2210    0.5835 H         1 <0>         0.4350
     59 H25         3.3584   -3.0347   -0.0864 H         1 <0>         0.4417
     60 H26         5.7895   -1.5390   -0.7905 H         1 <0>         0.1047
     61 H27         5.8079   -1.8117    0.9848 H         1 <0>         0.0901
     62 H28         5.9671   -3.7081   -2.3623 H         1 <0>         0.1519
     63 H29         6.7274   -6.2535   -1.8738 H         1 <0>         0.1524
     64 H30         6.7291   -6.5683    0.7276 H         1 <0>         0.2066
@<TRIPOS>BOND
     1    1    2 1
     2    1   37 1
     3    1   38 1
     4    1   39 1
     5    2    3 1
     6    2    4 1
     7    2   25 1
     8    4    5 1
     9    4    6 1
    10    4   11 1
    11    6   10 1
    12    6    7 2
    13    7    8 1
    14    7   40 1
    15    8    9 2
    16    8   41 1
    17    9   10 1
    18    9   42 1
    19   11   16 1
    20   11   12 1
    21   12   13 1
    22   12   43 1
    23   12   44 1
    24   13   14 1
    25   13   45 1
    26   13   46 1
    27   14   15 1
    28   14   17 1
    29   15   16 1
    30   15   47 1
    31   15   48 1
    32   16   49 1
    33   16   50 1
    34   17   22 ar
    35   17   18 ar
    36   18   19 ar
    37   18   51 1
    38   19   20 ar
    39   19   52 1
    40   20   21 ar
    41   20   23 1
    42   21   22 ar
    43   21   53 1
    44   22   54 1
    45   23   24 1
    46   24   55 1
    47   24   56 1
    48   24   57 1
    49   25   26 am
    50   25   58 1
    51   26   27 2
    52   26   28 1
    53   28   29 2
    54   28   30 am
    55   30   31 1
    56   30   59 1
    57   31   32 1
    58   31   60 1
    59   31   61 1
    60   32   36 1
    61   32   33 2
    62   33   34 1
    63   33   62 1
    64   34   35 2
    65   34   63 1
    66   35   36 1
    67   35   64 1
@<TRIPOS>MOLECULE
ZINC20289400
   64    67     0     0     0
SMALL
USER_CHARGES
N'-(2-furylmethyl)-N-[(1S,2S)-2-[4-(4-methoxyphenyl)piperazin-1-yl]-1-methyl-2-(2-thienyl)ethyl]oxamide
@<TRIPOS>ATOM
      1 C1          1.5307    7.2748   -3.5147 C.3       1 <0>        -0.1590
      2 C2          0.7885    7.7689   -2.2714 C.3       1 <0>         0.1511
      3 H1         -0.1747    7.2488   -2.1630 H         1 <0>         0.0972
      4 C3          1.6622    7.5487   -1.0348 C.3       1 <0>         0.1635
      5 H2          2.6209    8.0795   -1.1304 H         1 <0>         0.1156
      6 C4          0.9312    8.0353    0.1899 C.2       1 <0>        -0.1840
      7 C5          1.1727    9.1324    0.9485 C.2       1 <0>        -0.1406
      8 C6          0.3621    9.3846    2.0394 C.2       1 <0>        -0.1585
      9 C7         -0.6503    8.5276    2.3183 C.2       1 <0>        -0.1812
     10 S1         -0.4825    7.3208    1.0133 S.3       1 <0>         0.0574
     11 N1          1.9571    6.1167   -0.8923 N.3       1 <0>        -0.5149
     12 C8          2.6270    5.8417    0.3865 C.3       1 <0>         0.0502
     13 C9          2.9875    4.3561    0.4614 C.3       1 <0>         0.0536
     14 N2          1.7657    3.5508    0.3263 N.pl3     1 <0>        -0.4848
     15 C10         1.0958    3.8258   -0.9525 C.3       1 <0>         0.0613
     16 C11         0.7353    5.3113   -1.0274 C.3       1 <0>         0.0354
     17 C12         2.0467    2.1866    0.4620 C.ar      1 <0>         0.0759
     18 C13         1.0227    1.2536    0.3663 C.ar      1 <0>        -0.0984
     19 C14         1.3010   -0.0926    0.5000 C.ar      1 <0>        -0.1259
     20 C15         2.6028   -0.5126    0.7293 C.ar      1 <0>         0.1026
     21 C16         3.6261    0.4187    0.8256 C.ar      1 <0>        -0.1815
     22 C17         3.3495    1.7653    0.6931 C.ar      1 <0>        -0.1288
     23 O1          2.8760   -1.8385    0.8604 O.3       1 <0>        -0.3191
     24 C18         4.2384   -2.2000    1.0952 C.3       1 <0>         0.0245
     25 N3          0.4944    9.1970   -2.4135 N.am      1 <0>        -0.7044
     26 C19        -0.6114    9.5948   -3.0733 C.2       1 <0>         0.5151
     27 O2         -1.3634    8.7701   -3.5497 O.2       1 <0>        -0.5228
     28 C20        -0.9114   11.0517   -3.2183 C.2       1 <0>         0.5116
     29 O3         -0.1594   11.8764   -2.7420 O.2       1 <0>        -0.5228
     30 N4         -2.0173   11.4496   -3.8781 N.am      1 <0>        -0.7118
     31 C21        -2.3114   12.8777   -4.0203 C.3       1 <0>         0.2045
     32 C22        -3.5936   13.0521   -4.7926 C.2       1 <0>        -0.0444
     33 C23        -4.8282   13.1195   -4.2627 C.2       1 <0>        -0.1770
     34 C24        -5.7281   13.2841   -5.3406 C.2       1 <0>        -0.2184
     35 C25        -4.9897   13.3074   -6.4647 C.2       1 <0>        -0.0233
     36 O4         -3.6971   13.1722   -6.1262 O.3       1 <0>        -0.1709
     37 H3          0.9026    7.4331   -4.4038 H         1 <0>         0.0619
     38 H4          1.7515    6.2025   -3.4079 H         1 <0>         0.0820
     39 H5          2.4716    7.8336   -3.6263 H         1 <0>         0.0632
     40 H6          1.9860    9.7995    0.7041 H         1 <0>         0.1321
     41 H7          0.5331   10.2515    2.6604 H         1 <0>         0.1317
     42 H8         -1.3733    8.5668    3.1196 H         1 <0>         0.1819
     43 H9          3.5431    6.4464    0.4580 H         1 <0>         0.0868
     44 H10         1.9524    6.0986    1.2165 H         1 <0>         0.0578
     45 H11         3.6842    4.1064   -0.3524 H         1 <0>         0.0562
     46 H12         3.4633    4.1426    1.4299 H         1 <0>         0.0883
     47 H13         1.7704    3.5689   -1.7825 H         1 <0>         0.0556
     48 H14         0.1797    3.2211   -1.0240 H         1 <0>         0.0890
     49 H15         0.0390    5.5621   -0.2136 H         1 <0>         0.0567
     50 H16         0.2599    5.5258   -1.9959 H         1 <0>         0.0943
     51 H17         0.0097    1.5802    0.1829 H         1 <0>         0.1318
     52 H18         0.5047   -0.8184    0.4255 H         1 <0>         0.1327
     53 H19         4.6394    0.0908    1.0045 H         1 <0>         0.1279
     54 H20         4.1463    2.4904    0.7684 H         1 <0>         0.1293
     55 H21         4.3180   -3.2938    1.1808 H         1 <0>         0.1015
     56 H22         4.5861   -1.7329    2.0284 H         1 <0>         0.0554
     57 H23         4.8598   -1.8516    0.2571 H         1 <0>         0.0552
     58 H24         1.1761    9.9446   -1.9817 H         1 <0>         0.4348
     59 H25        -2.6990   10.7020   -4.3098 H         1 <0>         0.4418
     60 H26        -2.4191   13.3309   -3.0238 H         1 <0>         0.1042
     61 H27        -1.4886   13.3696   -4.5598 H         1 <0>         0.0906
     62 H28        -5.0830   13.0590   -3.2150 H         1 <0>         0.1516
     63 H29        -6.8024   13.3736   -5.2742 H         1 <0>         0.1523
     64 H30        -5.3712   13.4208   -7.4687 H         1 <0>         0.2068
@<TRIPOS>BOND
     1    1    2 1
     2    1   37 1
     3    1   38 1
     4    1   39 1
     5    2    3 1
     6    2    4 1
     7    2   25 1
     8    4    5 1
     9    4    6 1
    10    4   11 1
    11    6   10 1
    12    6    7 2
    13    7    8 1
    14    7   40 1
    15    8    9 2
    16    8   41 1
    17    9   10 1
    18    9   42 1
    19   11   16 1
    20   11   12 1
    21   12   13 1
    22   12   43 1
    23   12   44 1
    24   13   14 1
    25   13   45 1
    26   13   46 1
    27   14   15 1
    28   14   17 1
    29   15   16 1
    30   15   47 1
    31   15   48 1
    32   16   49 1
    33   16   50 1
    34   17   22 ar
    35   17   18 ar
    36   18   19 ar
    37   18   51 1
    38   19   20 ar
    39   19   52 1
    40   20   21 ar
    41   20   23 1
    42   21   22 ar
    43   21   53 1
    44   22   54 1
    45   23   24 1
    46   24   55 1
    47   24   56 1
    48   24   57 1
    49   25   26 am
    50   25   58 1
    51   26   27 2
    52   26   28 1
    53   28   29 2
    54   28   30 am
    55   30   31 1
    56   30   59 1
    57   31   32 1
    58   31   60 1
    59   31   61 1
    60   32   36 1
    61   32   33 2
    62   33   34 1
    63   33   62 1
    64   34   35 2
    65   34   63 1
    66   35   36 1
    67   35   64 1
@<TRIPOS>MOLECULE
ZINC20289402
   64    67     0     0     0
SMALL
USER_CHARGES
N'-(2-furylmethyl)-N-[(1S,2R)-2-[4-(4-methoxyphenyl)piperazin-1-yl]-1-methyl-2-(2-thienyl)ethyl]oxamide
@<TRIPOS>ATOM
      1 C1          2.5341    4.7029    1.8701 C.3       1 <0>        -0.1631
      2 C2          1.3361    5.5514    1.4393 C.3       1 <0>         0.1538
      3 H1          1.5820    6.6224    1.4894 H         1 <0>         0.1011
      4 C3          0.9180    5.1603    0.0205 C.3       1 <0>         0.1653
      5 H2          0.1308    5.8297   -0.3565 H         1 <0>         0.0731
      6 C4          0.4207    3.7377    0.0174 C.2       1 <0>        -0.1496
      7 C5         -0.8549    3.2793    0.0270 C.2       1 <0>        -0.1544
      8 C6         -1.0770    1.9150    0.0166 C.2       1 <0>        -0.1568
      9 C7         -0.0126    1.0758    0.0080 C.2       1 <0>        -0.1824
     10 S1          1.3588    2.2188    0.0010 S.3       1 <0>         0.0865
     11 N1          2.0727    5.2773   -0.8801 N.3       1 <0>        -0.5272
     12 C8          2.6411    6.6317   -0.8343 C.3       1 <0>         0.0471
     13 C9          3.8860    6.6899   -1.7227 C.3       1 <0>         0.0600
     14 N2          3.5210    6.3212   -3.0977 N.pl3     1 <0>        -0.4868
     15 C10         2.9526    4.9668   -3.1435 C.3       1 <0>         0.0543
     16 C11         1.7077    4.9086   -2.2550 C.3       1 <0>         0.0550
     17 C12         4.6210    6.4327   -3.9555 C.ar      1 <0>         0.0752
     18 C13         5.0352    5.3362   -4.7002 C.ar      1 <0>        -0.1286
     19 C14         6.1173    5.4487   -5.5509 C.ar      1 <0>        -0.1814
     20 C15         6.7977    6.6531   -5.6526 C.ar      1 <0>         0.1030
     21 C16         6.3879    7.7473   -4.9053 C.ar      1 <0>        -0.1263
     22 C17         5.3025    7.6382   -4.0583 C.ar      1 <0>        -0.0982
     23 O1          7.8670    6.7613   -6.4861 O.3       1 <0>        -0.3190
     24 C18         8.2338    5.5949   -7.2256 C.3       1 <0>         0.0244
     25 N3          0.2188    5.3212    2.3586 N.am      1 <0>        -0.7086
     26 C19         0.1366    6.0206    3.5077 C.2       1 <0>         0.5132
     27 O2          0.9879    6.8410    3.7809 O.2       1 <0>        -0.5229
     28 C20        -1.0031    5.7857    4.4455 C.2       1 <0>         0.5107
     29 O3         -1.8545    4.9653    4.1723 O.2       1 <0>        -0.5225
     30 N4         -1.0854    6.4851    5.5946 N.am      1 <0>        -0.7112
     31 C21        -2.2026    6.2549    6.5139 C.3       1 <0>         0.2041
     32 C22        -2.0603    7.1562    7.7132 C.2       1 <0>        -0.0444
     33 C23        -2.5650    8.3977    7.8286 C.2       1 <0>        -0.1769
     34 C24        -2.1951    8.8731    9.1076 C.2       1 <0>        -0.2185
     35 C25        -1.4863    7.8937    9.6974 C.2       1 <0>        -0.0232
     36 O4         -1.4128    6.8540    8.8504 O.3       1 <0>        -0.1710
     37 H3          2.8347    4.9841    2.8902 H         1 <0>         0.0601
     38 H4          3.3730    4.8757    1.1799 H         1 <0>         0.0824
     39 H5          2.2559    3.6388    1.8500 H         1 <0>         0.0667
     40 H6         -1.6853    3.9697    0.0386 H         1 <0>         0.1331
     41 H7         -2.0835    1.5236    0.0183 H         1 <0>         0.1338
     42 H8          0.0021   -0.0041    0.0020 H         1 <0>         0.1841
     43 H9          1.8959    7.3545   -1.1978 H         1 <0>         0.0507
     44 H10         2.9167    6.8789    0.2015 H         1 <0>         0.0926
     45 H11         4.2964    7.7104   -1.7123 H         1 <0>         0.0894
     46 H12         4.6415    5.9870   -1.3418 H         1 <0>         0.0551
     47 H13         2.6769    4.7197   -4.1793 H         1 <0>         0.0879
     48 H14         3.6978    4.2439   -2.7801 H         1 <0>         0.0571
     49 H15         1.2968    3.8883   -2.2642 H         1 <0>         0.0887
     50 H16         0.9518    5.6117   -2.6348 H         1 <0>         0.0479
     51 H17         4.5087    4.3969   -4.6172 H         1 <0>         0.1293
     52 H18         6.4368    4.5973   -6.1335 H         1 <0>         0.1280
     53 H19         6.9180    8.6849   -4.9854 H         1 <0>         0.1328
     54 H20         4.9835    8.4903   -3.4765 H         1 <0>         0.1318
     55 H21         9.1074    5.8196   -7.8552 H         1 <0>         0.1016
     56 H22         7.3924    5.2852   -7.8629 H         1 <0>         0.0555
     57 H23         8.4839    4.7821   -6.5279 H         1 <0>         0.0553
     58 H24        -0.5530    4.5775    2.1109 H         1 <0>         0.4343
     59 H25        -0.3137    7.2288    5.8422 H         1 <0>         0.4420
     60 H26        -3.1507    6.4741    6.0009 H         1 <0>         0.1047
     61 H27        -2.1974    5.2049    6.8417 H         1 <0>         0.0906
     62 H28        -3.1418    8.9295    7.0863 H         1 <0>         0.1518
     63 H29        -2.4351    9.8377    9.5300 H         1 <0>         0.1524
     64 H30        -1.0542    7.9345   10.6863 H         1 <0>         0.2067
@<TRIPOS>BOND
     1    1    2 1
     2    1   37 1
     3    1   38 1
     4    1   39 1
     5    2    3 1
     6    2    4 1
     7    2   25 1
     8    4    5 1
     9    4    6 1
    10    4   11 1
    11    6   10 1
    12    6    7 2
    13    7    8 1
    14    7   40 1
    15    8    9 2
    16    8   41 1
    17    9   10 1
    18    9   42 1
    19   11   16 1
    20   11   12 1
    21   12   13 1
    22   12   43 1
    23   12   44 1
    24   13   14 1
    25   13   45 1
    26   13   46 1
    27   14   15 1
    28   14   17 1
    29   15   16 1
    30   15   47 1
    31   15   48 1
    32   16   49 1
    33   16   50 1
    34   17   22 ar
    35   17   18 ar
    36   18   19 ar
    37   18   51 1
    38   19   20 ar
    39   19   52 1
    40   20   21 ar
    41   20   23 1
    42   21   22 ar
    43   21   53 1
    44   22   54 1
    45   23   24 1
    46   24   55 1
    47   24   56 1
    48   24   57 1
    49   25   26 am
    50   25   58 1
    51   26   27 2
    52   26   28 1
    53   28   29 2
    54   28   30 am
    55   30   31 1
    56   30   59 1
    57   31   32 1
    58   31   60 1
    59   31   61 1
    60   32   36 1
    61   32   33 2
    62   33   34 1
    63   33   62 1
    64   34   35 2
    65   34   63 1
    66   35   36 1
    67   35   64 1
@<TRIPOS>MOLECULE
ZINC20289076
   62    65     0     0     0
SMALL
USER_CHARGES
N-[(1R,2R)-2-[4-(4-fluorophenyl)piperazin-1-yl]-1-methyl-2-(2-thienyl)ethyl]-N'-(3-pyridylmethyl)oxamide
@<TRIPOS>ATOM
      1 C1          0.8262    9.5777   -2.2212 C.3       1 <0>        -0.1671
      2 C2          0.7482    8.0514   -2.1480 C.3       1 <0>         0.1512
      3 H1         -0.2892    7.7238   -1.9850 H         1 <0>         0.1042
      4 C3          1.6553    7.5478   -1.0236 C.3       1 <0>         0.1623
      5 H2          1.3164    7.9228   -0.0466 H         1 <0>         0.0850
      6 C4          3.0701    7.9996   -1.2790 C.2       1 <0>        -0.1478
      7 C5          3.7429    9.0450   -0.7389 C.2       1 <0>        -0.1439
      8 C6          5.0514    9.2705   -1.1232 C.2       1 <0>        -0.1577
      9 C7          5.6195    8.4460   -2.0369 C.2       1 <0>        -0.1720
     10 S1          4.2922    7.3017   -2.3773 S.3       1 <0>         0.0657
     11 N1          1.6106    6.0801   -0.9786 N.3       1 <0>        -0.5340
     12 C8          2.4380    5.5614    0.1196 C.3       1 <0>         0.0544
     13 C9          2.4284    4.0314    0.0832 C.3       1 <0>         0.0514
     14 N2          1.0446    3.5499    0.1975 N.pl3     1 <0>        -0.4871
     15 C10         0.2172    4.0686   -0.9007 C.3       1 <0>         0.0609
     16 C11         0.2268    5.5987   -0.8643 C.3       1 <0>         0.0506
     17 C12         1.0021    2.1530    0.2403 C.ar      1 <0>         0.1029
     18 C13        -0.2175    1.4974    0.3476 C.ar      1 <0>        -0.1115
     19 C14        -0.2572    0.1174    0.3892 C.ar      1 <0>        -0.1272
     20 C15         0.9177   -0.6123    0.3241 C.ar      1 <0>         0.0711
     21 C16         2.1348    0.0392    0.2171 C.ar      1 <0>        -0.1252
     22 C17         2.1793    1.4191    0.1756 C.ar      1 <0>        -0.1414
     23 F1          0.8766   -1.9621    0.3655 F         1 <0>        -0.1415
     24 N3          1.1867    7.4783   -3.4229 N.am      1 <0>        -0.6947
     25 C18         0.3109    7.3453   -4.4387 C.2       1 <0>         0.5096
     26 O1         -0.8409    7.7003   -4.2972 O.2       1 <0>        -0.5293
     27 C19         0.7582    6.7606   -5.7393 C.2       1 <0>         0.5077
     28 O2          1.9100    6.4056   -5.8808 O.2       1 <0>        -0.5199
     29 N4         -0.1176    6.6276   -6.7551 N.am      1 <0>        -0.7106
     30 C20         0.3209    6.0545   -8.0300 C.3       1 <0>         0.1670
     31 C21        -0.8403    6.0170   -8.9898 C.ar      1 <0>        -0.1649
     32 C22        -1.6665    4.9047   -9.0492 C.ar      1 <0>        -0.0538
     33 C23        -2.7253    4.9164   -9.9439 C.ar      1 <0>        -0.1733
     34 C24        -2.9151    6.0243  -10.7484 C.ar      1 <0>         0.1089
     35 N5         -2.1062    7.0625  -10.6683 N.ar      1 <0>        -0.4845
     36 C25        -1.0919    7.0880   -9.8257 C.ar      1 <0>         0.1210
     37 H3          0.1740    9.9398   -3.0296 H         1 <0>         0.0688
     38 H4          1.8637    9.8826   -2.4227 H         1 <0>         0.0664
     39 H5          0.4969   10.0080   -1.2639 H         1 <0>         0.0712
     40 H6          3.2648    9.6904   -0.0169 H         1 <0>         0.1329
     41 H7          5.6112   10.0941   -0.7053 H         1 <0>         0.1348
     42 H8          6.6164    8.4743   -2.4515 H         1 <0>         0.1863
     43 H9          3.4697    5.9254    0.0049 H         1 <0>         0.0897
     44 H10         2.0313    5.9089    1.0808 H         1 <0>         0.0490
     45 H11         2.8611    3.6845   -0.8668 H         1 <0>         0.0598
     46 H12         3.0240    3.6409    0.9216 H         1 <0>         0.0904
     47 H13         0.6239    3.7211   -1.8619 H         1 <0>         0.0555
     48 H14        -0.8145    3.7046   -0.7861 H         1 <0>         0.0896
     49 H15        -0.2051    5.9466    0.0856 H         1 <0>         0.0517
     50 H16        -0.3681    5.9902   -1.7027 H         1 <0>         0.0906
     51 H17        -1.1345    2.0661    0.3939 H         1 <0>         0.1345
     52 H18        -1.2054   -0.3929    0.4730 H         1 <0>         0.1374
     53 H19         3.0500   -0.5319    0.1665 H         1 <0>         0.1360
     54 H20         3.1289    1.9269    0.0929 H         1 <0>         0.1371
     55 H21         2.2307    7.1565   -3.5511 H         1 <0>         0.4323
     56 H22        -1.1616    6.9494   -6.6269 H         1 <0>         0.4380
     57 H23         1.1261    6.6735   -8.4526 H         1 <0>         0.0853
     58 H24         0.6926    5.0326   -7.8641 H         1 <0>         0.0835
     59 H25        -1.4915    4.0514   -8.4107 H         1 <0>         0.1370
     60 H26        -3.3910    4.0689  -10.0144 H         1 <0>         0.1391
     61 H27        -3.7351    6.0395  -11.4510 H         1 <0>         0.1590
     62 H28        -0.4507    7.9563   -9.7885 H         1 <0>         0.1572
@<TRIPOS>BOND
     1    1    2 1
     2    1   37 1
     3    1   38 1
     4    1   39 1
     5    2    3 1
     6    2    4 1
     7    2   24 1
     8    4    5 1
     9    4    6 1
    10    4   11 1
    11    6   10 1
    12    6    7 2
    13    7    8 1
    14    7   40 1
    15    8    9 2
    16    8   41 1
    17    9   10 1
    18    9   42 1
    19   11   16 1
    20   11   12 1
    21   12   13 1
    22   12   43 1
    23   12   44 1
    24   13   14 1
    25   13   45 1
    26   13   46 1
    27   14   15 1
    28   14   17 1
    29   15   16 1
    30   15   47 1
    31   15   48 1
    32   16   49 1
    33   16   50 1
    34   17   22 ar
    35   17   18 ar
    36   18   19 ar
    37   18   51 1
    38   19   20 ar
    39   19   52 1
    40   20   21 ar
    41   20   23 1
    42   21   22 ar
    43   21   53 1
    44   22   54 1
    45   24   25 am
    46   24   55 1
    47   25   26 2
    48   25   27 1
    49   27   28 2
    50   27   29 am
    51   29   30 1
    52   29   56 1
    53   30   31 1
    54   30   57 1
    55   30   58 1
    56   31   36 ar
    57   31   32 ar
    58   32   33 ar
    59   32   59 1
    60   33   34 ar
    61   33   60 1
    62   34   35 ar
    63   34   61 1
    64   35   36 ar
    65   36   62 1
@<TRIPOS>MOLECULE
ZINC20289079
   62    65     0     0     0
SMALL
USER_CHARGES
N-[(1S,2R)-2-[4-(4-fluorophenyl)piperazin-1-yl]-1-methyl-2-(2-thienyl)ethyl]-N'-(3-pyridylmethyl)oxamide
@<TRIPOS>ATOM
      1 C1          2.5341    4.7029    1.8701 C.3       1 <0>        -0.1629
      2 C2          1.3361    5.5514    1.4393 C.3       1 <0>         0.1536
      3 H1          1.5820    6.6224    1.4894 H         1 <0>         0.1008
      4 C3          0.9180    5.1603    0.0205 C.3       1 <0>         0.1656
      5 H2          0.1308    5.8297   -0.3565 H         1 <0>         0.0733
      6 C4          0.4207    3.7377    0.0174 C.2       1 <0>        -0.1507
      7 C5         -0.8549    3.2793    0.0270 C.2       1 <0>        -0.1536
      8 C6         -1.0770    1.9150    0.0166 C.2       1 <0>        -0.1570
      9 C7         -0.0126    1.0758    0.0080 C.2       1 <0>        -0.1817
     10 S1          1.3588    2.2188    0.0010 S.3       1 <0>         0.0865
     11 N1          2.0727    5.2773   -0.8801 N.3       1 <0>        -0.5275
     12 C8          2.6411    6.6317   -0.8343 C.3       1 <0>         0.0467
     13 C9          3.8860    6.6899   -1.7227 C.3       1 <0>         0.0597
     14 N2          3.5210    6.3212   -3.0977 N.pl3     1 <0>        -0.4881
     15 C10         2.9526    4.9668   -3.1435 C.3       1 <0>         0.0523
     16 C11         1.7077    4.9086   -2.2550 C.3       1 <0>         0.0545
     17 C12         4.6201    6.4326   -3.9548 C.ar      1 <0>         0.1029
     18 C13         5.0349    5.3364   -4.6998 C.ar      1 <0>        -0.1418
     19 C14         6.1179    5.4500   -5.5495 C.ar      1 <0>        -0.1255
     20 C15         6.7964    6.6528   -5.6509 C.ar      1 <0>         0.0713
     21 C16         6.3878    7.7455   -4.9051 C.ar      1 <0>        -0.1271
     22 C17         5.3021    7.6379   -4.0581 C.ar      1 <0>        -0.1111
     23 F1          7.8583    6.7604   -6.4791 F         1 <0>        -0.1415
     24 N3          0.2188    5.3212    2.3586 N.am      1 <0>        -0.7089
     25 C18         0.1366    6.0206    3.5077 C.2       1 <0>         0.5123
     26 O1          0.9879    6.8410    3.7809 O.2       1 <0>        -0.5240
     27 C19        -1.0031    5.7857    4.4455 C.2       1 <0>         0.5088
     28 O2         -1.8545    4.9653    4.1723 O.2       1 <0>        -0.5228
     29 N4         -1.0854    6.4851    5.5946 N.am      1 <0>        -0.7096
     30 C20        -2.2026    6.2549    6.5139 C.3       1 <0>         0.1670
     31 C21        -2.0603    7.1562    7.7132 C.ar      1 <0>        -0.1657
     32 C22        -1.3642    6.7290    8.8339 C.ar      1 <0>        -0.0537
     33 C23        -1.2548    7.5936    9.9120 C.ar      1 <0>        -0.1732
     34 C24        -1.8475    8.8402    9.8384 C.ar      1 <0>         0.1094
     35 N5         -2.5063    9.2111    8.7581 N.ar      1 <0>        -0.4845
     36 C25        -2.6266    8.4166    7.7123 C.ar      1 <0>         0.1212
     37 H3          2.8347    4.9841    2.8902 H         1 <0>         0.0599
     38 H4          3.3730    4.8757    1.1799 H         1 <0>         0.0821
     39 H5          2.2559    3.6388    1.8500 H         1 <0>         0.0668
     40 H6         -1.6853    3.9697    0.0386 H         1 <0>         0.1332
     41 H7         -2.0835    1.5236    0.0183 H         1 <0>         0.1339
     42 H8          0.0021   -0.0041    0.0020 H         1 <0>         0.1843
     43 H9          1.8959    7.3545   -1.1978 H         1 <0>         0.0515
     44 H10         2.9167    6.8789    0.2015 H         1 <0>         0.0938
     45 H11         4.2964    7.7104   -1.7123 H         1 <0>         0.0908
     46 H12         4.6415    5.9870   -1.3418 H         1 <0>         0.0578
     47 H13         2.6769    4.7197   -4.1793 H         1 <0>         0.0903
     48 H14         3.6978    4.2439   -2.7801 H         1 <0>         0.0602
     49 H15         1.2968    3.8883   -2.2642 H         1 <0>         0.0902
     50 H16         0.9518    5.6117   -2.6348 H         1 <0>         0.0486
     51 H17         4.5085    4.3969   -4.6179 H         1 <0>         0.1370
     52 H18         6.4381    4.5991   -6.1323 H         1 <0>         0.1358
     53 H19         6.9182    8.6828   -4.9860 H         1 <0>         0.1375
     54 H20         4.9835    8.4906   -3.4769 H         1 <0>         0.1350
     55 H21        -0.5530    4.5775    2.1109 H         1 <0>         0.4343
     56 H22        -0.3137    7.2288    5.8422 H         1 <0>         0.4389
     57 H23        -3.1507    6.4741    6.0009 H         1 <0>         0.0857
     58 H24        -2.1974    5.2049    6.8417 H         1 <0>         0.0839
     59 H25        -0.9146    5.7475    8.8646 H         1 <0>         0.1372
     60 H26        -0.7169    7.2954   10.7997 H         1 <0>         0.1394
     61 H27        -1.7705    9.5181   10.6756 H         1 <0>         0.1593
     62 H28        -3.1738    8.7552    6.8449 H         1 <0>         0.1573
@<TRIPOS>BOND
     1    1    2 1
     2    1   37 1
     3    1   38 1
     4    1   39 1
     5    2    3 1
     6    2    4 1
     7    2   24 1
     8    4    5 1
     9    4    6 1
    10    4   11 1
    11    6   10 1
    12    6    7 2
    13    7    8 1
    14    7   40 1
    15    8    9 2
    16    8   41 1
    17    9   10 1
    18    9   42 1
    19   11   16 1
    20   11   12 1
    21   12   13 1
    22   12   43 1
    23   12   44 1
    24   13   14 1
    25   13   45 1
    26   13   46 1
    27   14   15 1
    28   14   17 1
    29   15   16 1
    30   15   47 1
    31   15   48 1
    32   16   49 1
    33   16   50 1
    34   17   22 ar
    35   17   18 ar
    36   18   19 ar
    37   18   51 1
    38   19   20 ar
    39   19   52 1
    40   20   21 ar
    41   20   23 1
    42   21   22 ar
    43   21   53 1
    44   22   54 1
    45   24   25 am
    46   24   55 1
    47   25   26 2
    48   25   27 1
    49   27   28 2
    50   27   29 am
    51   29   30 1
    52   29   56 1
    53   30   31 1
    54   30   57 1
    55   30   58 1
    56   31   36 ar
    57   31   32 ar
    58   32   33 ar
    59   32   59 1
    60   33   34 ar
    61   33   60 1
    62   34   35 ar
    63   34   61 1
    64   35   36 ar
    65   36   62 1
@<TRIPOS>MOLECULE
ZINC20289082
   62    65     0     0     0
SMALL
USER_CHARGES
N-[(1R,2S)-2-[4-(4-fluorophenyl)piperazin-1-yl]-1-methyl-2-(2-thienyl)ethyl]-N'-(3-pyridylmethyl)oxamide
@<TRIPOS>ATOM
      1 C1          3.2027    3.5952   -1.7006 C.3       1 <0>        -0.1627
      2 C2          1.8348    4.1518   -1.3003 C.3       1 <0>         0.1546
      3 H1          1.8148    5.2462   -1.4091 H         1 <0>         0.1007
      4 C3          1.5221    3.7480    0.1419 C.3       1 <0>         0.1657
      5 H2          0.5768    4.1972    0.4804 H         1 <0>         0.0730
      6 C4          1.4340    2.2465    0.2353 C.2       1 <0>        -0.1512
      7 C5          0.3344    1.4539    0.2297 C.2       1 <0>        -0.1534
      8 C6          0.4947    0.0844    0.3270 C.2       1 <0>        -0.1571
      9 C7          1.7468   -0.4255    0.4251 C.2       1 <0>        -0.1812
     10 S1          2.7509    1.0499    0.3814 S.3       1 <0>         0.0864
     11 N1          2.5889    4.2320    1.0282 N.3       1 <0>        -0.5277
     12 C8          2.3528    3.8098    2.4159 C.3       1 <0>         0.0525
     13 C9          3.5233    4.2644    3.2909 C.3       1 <0>         0.0605
     14 N2          3.6583    5.7252    3.2036 N.pl3     1 <0>        -0.4882
     15 C10         3.8944    6.1474    1.8159 C.3       1 <0>         0.0515
     16 C11         2.7239    5.6927    0.9410 C.3       1 <0>         0.0484
     17 C12         4.6737    6.1859    4.0472 C.ar      1 <0>         0.1031
     18 C13         5.7238    6.9321    3.5284 C.ar      1 <0>        -0.1418
     19 C14         6.7232    7.3902    4.3644 C.ar      1 <0>        -0.1253
     20 C15         6.6843    7.0970    5.7171 C.ar      1 <0>         0.0713
     21 C16         5.6411    6.3487    6.2357 C.ar      1 <0>        -0.1271
     22 C17         4.6367    5.8930    5.4043 C.ar      1 <0>        -0.1113
     23 F1          7.6655    7.5421    6.5322 F         1 <0>        -0.1415
     24 N3          0.8071    3.6103   -2.1929 N.am      1 <0>        -0.7092
     25 C18         0.5596    4.2067   -3.3759 C.2       1 <0>         0.5123
     26 O1          1.1881    5.1923   -3.7017 O.2       1 <0>        -0.5238
     27 C19        -0.4889    3.6543   -4.2864 C.2       1 <0>         0.5088
     28 O2         -1.1174    2.6687   -3.9606 O.2       1 <0>        -0.5230
     29 N4         -0.7363    4.2507   -5.4694 N.am      1 <0>        -0.7095
     30 C20        -1.7641    3.7092   -6.3619 C.3       1 <0>         0.1669
     31 C21        -1.8423    4.5528   -7.6083 C.ar      1 <0>        -0.1658
     32 C22        -2.7033    5.6382   -7.6685 C.ar      1 <0>        -0.0537
     33 C23        -2.7384    6.3885   -8.8337 C.ar      1 <0>        -0.1733
     34 C24        -1.9272    6.0264   -9.8927 C.ar      1 <0>         0.1094
     35 N5         -1.1241    4.9846   -9.8016 N.ar      1 <0>        -0.4844
     36 C25        -1.0612    4.2510   -8.7074 C.ar      1 <0>         0.1214
     37 H3          3.4275    3.8855   -2.7375 H         1 <0>         0.0599
     38 H4          3.1895    2.4981   -1.6216 H         1 <0>         0.0665
     39 H5          3.9744    4.0018   -1.0304 H         1 <0>         0.0820
     40 H6         -0.6520    1.8857    0.1460 H         1 <0>         0.1331
     41 H7         -0.3648   -0.5695    0.3252 H         1 <0>         0.1341
     42 H8          2.0565   -1.4568    0.5085 H         1 <0>         0.1845
     43 H9          1.4208    4.2638    2.7837 H         1 <0>         0.0487
     44 H10         2.2676    2.7138    2.4563 H         1 <0>         0.0914
     45 H11         3.3348    3.9743    4.3351 H         1 <0>         0.0895
     46 H12         4.4504    3.7878    2.9397 H         1 <0>         0.0579
     47 H13         3.9795    7.2434    1.7755 H         1 <0>         0.0917
     48 H14         4.8264    5.6935    1.4480 H         1 <0>         0.0604
     49 H15         2.9117    5.9818   -0.1036 H         1 <0>         0.0931
     50 H16         1.7962    6.1683    1.2919 H         1 <0>         0.0510
     51 H17         5.7567    7.1575    2.4727 H         1 <0>         0.1373
     52 H18         7.5377    7.9744    3.9621 H         1 <0>         0.1360
     53 H19         5.6126    6.1215    7.2911 H         1 <0>         0.1374
     54 H20         3.8230    5.3097    5.8092 H         1 <0>         0.1346
     55 H21         0.2374    2.7169   -1.8976 H         1 <0>         0.4340
     56 H22        -0.1665    5.1440   -5.7648 H         1 <0>         0.4389
     57 H23        -1.5053    2.6754   -6.6345 H         1 <0>         0.0858
     58 H24        -2.7375    3.7206   -5.8497 H         1 <0>         0.0839
     59 H25        -3.3286    5.8952   -6.8264 H         1 <0>         0.1371
     60 H26        -3.3944    7.2427   -8.9145 H         1 <0>         0.1394
     61 H27        -1.9517    6.6033  -10.8054 H         1 <0>         0.1593
     62 H28        -0.3911    3.4049   -8.6699 H         1 <0>         0.1574
@<TRIPOS>BOND
     1    1    2 1
     2    1   37 1
     3    1   38 1
     4    1   39 1
     5    2    3 1
     6    2    4 1
     7    2   24 1
     8    4    5 1
     9    4    6 1
    10    4   11 1
    11    6   10 1
    12    6    7 2
    13    7    8 1
    14    7   40 1
    15    8    9 2
    16    8   41 1
    17    9   10 1
    18    9   42 1
    19   11   16 1
    20   11   12 1
    21   12   13 1
    22   12   43 1
    23   12   44 1
    24   13   14 1
    25   13   45 1
    26   13   46 1
    27   14   15 1
    28   14   17 1
    29   15   16 1
    30   15   47 1
    31   15   48 1
    32   16   49 1
    33   16   50 1
    34   17   22 ar
    35   17   18 ar
    36   18   19 ar
    37   18   51 1
    38   19   20 ar
    39   19   52 1
    40   20   21 ar
    41   20   23 1
    42   21   22 ar
    43   21   53 1
    44   22   54 1
    45   24   25 am
    46   24   55 1
    47   25   26 2
    48   25   27 1
    49   27   28 2
    50   27   29 am
    51   29   30 1
    52   29   56 1
    53   30   31 1
    54   30   57 1
    55   30   58 1
    56   31   36 ar
    57   31   32 ar
    58   32   33 ar
    59   32   59 1
    60   33   34 ar
    61   33   60 1
    62   34   35 ar
    63   34   61 1
    64   35   36 ar
    65   36   62 1
@<TRIPOS>MOLECULE
ZINC20289086
   62    65     0     0     0
SMALL
USER_CHARGES
N-[(1S,2S)-2-[4-(4-fluorophenyl)piperazin-1-yl]-1-methyl-2-(2-thienyl)ethyl]-N'-(3-pyridylmethyl)oxamide
@<TRIPOS>ATOM
      1 C1         -2.3392    1.8912    0.9270 C.3       1 <0>        -0.1577
      2 C2         -1.6713    2.0379   -0.4417 C.3       1 <0>         0.1525
      3 H1         -2.3890    1.8254   -1.2478 H         1 <0>         0.0963
      4 C3         -1.1045    3.4520   -0.5836 C.3       1 <0>         0.1638
      5 H2         -0.3741    3.6651    0.2108 H         1 <0>         0.1155
      6 C4         -0.4466    3.5965   -1.9317 C.2       1 <0>        -0.1861
      7 C5          0.8710    3.7030   -2.2315 C.2       1 <0>        -0.1394
      8 C6          1.2494    3.8271   -3.5552 C.2       1 <0>        -0.1588
      9 C7          0.2916    3.8387   -4.5143 C.2       1 <0>        -0.1820
     10 S1         -1.1999    3.6639   -3.5488 S.3       1 <0>         0.0582
     11 N1         -2.1935    4.4304   -0.4627 N.3       1 <0>        -0.5149
     12 C8         -3.2921    4.1124   -1.3855 C.3       1 <0>         0.0345
     13 C9         -4.4370    5.1056   -1.1730 C.3       1 <0>         0.0615
     14 N2         -3.9444    6.4720   -1.3963 N.pl3     1 <0>        -0.4864
     15 C10        -2.8458    6.7901   -0.4735 C.3       1 <0>         0.0514
     16 C11        -1.7009    5.7969   -0.6860 C.3       1 <0>         0.0514
     17 C12        -4.9810    7.4033   -1.2813 C.ar      1 <0>         0.1035
     18 C13        -4.8785    8.4493   -0.3735 C.ar      1 <0>        -0.1421
     19 C14        -5.9016    9.3709   -0.2649 C.ar      1 <0>        -0.1255
     20 C15        -7.0333    9.2464   -1.0529 C.ar      1 <0>         0.0710
     21 C16        -7.1399    8.2013   -1.9549 C.ar      1 <0>        -0.1268
     22 C17        -6.1170    7.2805   -2.0705 C.ar      1 <0>        -0.1112
     23 F1         -8.0349   10.1463   -0.9417 F         1 <0>        -0.1416
     24 N3         -0.5852    1.0621   -0.5622 N.am      1 <0>        -0.7048
     25 C18        -0.8507   -0.1946   -0.9703 C.2       1 <0>         0.5142
     26 O1         -1.9900   -0.5193   -1.2332 O.2       1 <0>        -0.5238
     27 C19         0.2581   -1.1883   -1.0992 C.2       1 <0>         0.5097
     28 O2          1.3974   -0.8637   -0.8363 O.2       1 <0>        -0.5232
     29 N4         -0.0074   -2.4451   -1.5073 N.am      1 <0>        -0.7102
     30 C20         1.0796   -3.4192   -1.6337 C.3       1 <0>         0.1673
     31 C21         0.5205   -4.7376   -2.1031 C.ar      1 <0>        -0.1657
     32 C22         0.0983   -5.6878   -1.1855 C.ar      1 <0>        -0.0537
     33 C23        -0.4133   -6.8845   -1.6631 C.ar      1 <0>        -0.1732
     34 C24        -0.4761   -7.0932   -3.0281 C.ar      1 <0>         0.1093
     35 N5         -0.0607   -6.1687   -3.8715 N.ar      1 <0>        -0.4845
     36 C25         0.4274   -5.0171   -3.4531 C.ar      1 <0>         0.1212
     37 H3         -2.7467    0.8746    1.0290 H         1 <0>         0.0612
     38 H4         -3.1547    2.6239    1.0175 H         1 <0>         0.0819
     39 H5         -1.5964    2.0697    1.7185 H         1 <0>         0.0625
     40 H6          1.6141    3.6907   -1.4479 H         1 <0>         0.1320
     41 H7          2.2925    3.9140   -3.8212 H         1 <0>         0.1316
     42 H8          0.4023    3.9267   -5.5850 H         1 <0>         0.1817
     43 H9         -2.9319    4.1829   -2.4225 H         1 <0>         0.0599
     44 H10        -3.6506    3.0909   -1.1906 H         1 <0>         0.0943
     45 H11        -5.2486    4.8868   -1.8825 H         1 <0>         0.0905
     46 H12        -4.8151    5.0146   -0.1440 H         1 <0>         0.0584
     47 H13        -2.4873    7.8116   -0.6685 H         1 <0>         0.0908
     48 H14        -3.2059    6.7196    0.5635 H         1 <0>         0.0596
     49 H15        -0.8890    6.0145    0.0235 H         1 <0>         0.0887
     50 H16        -1.3225    5.8867   -1.7150 H         1 <0>         0.0566
     51 H17        -3.9977    8.5444    0.2442 H         1 <0>         0.1369
     52 H18        -5.8203   10.1870    0.4377 H         1 <0>         0.1357
     53 H19        -8.0234    8.1064   -2.5688 H         1 <0>         0.1375
     54 H20        -6.2004    6.4657   -2.7745 H         1 <0>         0.1350
     55 H21         0.4469    1.3552   -0.3196 H         1 <0>         0.4346
     56 H22        -1.0402   -2.7395   -1.7455 H         1 <0>         0.4387
     57 H23         1.8171   -3.0531   -2.3631 H         1 <0>         0.0851
     58 H24         1.5663   -3.5543   -0.6566 H         1 <0>         0.0839
     59 H25         0.1630   -5.4986   -0.1242 H         1 <0>         0.1373
     60 H26        -0.7548   -7.6456   -0.9772 H         1 <0>         0.1394
     61 H27        -0.8696   -8.0244   -3.4081 H         1 <0>         0.1593
     62 H28         0.7579   -4.2840   -4.1740 H         1 <0>         0.1570
@<TRIPOS>BOND
     1    1    2 1
     2    1   37 1
     3    1   38 1
     4    1   39 1
     5    2    3 1
     6    2    4 1
     7    2   24 1
     8    4    5 1
     9    4    6 1
    10    4   11 1
    11    6   10 1
    12    6    7 2
    13    7    8 1
    14    7   40 1
    15    8    9 2
    16    8   41 1
    17    9   10 1
    18    9   42 1
    19   11   16 1
    20   11   12 1
    21   12   13 1
    22   12   43 1
    23   12   44 1
    24   13   14 1
    25   13   45 1
    26   13   46 1
    27   14   15 1
    28   14   17 1
    29   15   16 1
    30   15   47 1
    31   15   48 1
    32   16   49 1
    33   16   50 1
    34   17   22 ar
    35   17   18 ar
    36   18   19 ar
    37   18   51 1
    38   19   20 ar
    39   19   52 1
    40   20   21 ar
    41   20   23 1
    42   21   22 ar
    43   21   53 1
    44   22   54 1
    45   24   25 am
    46   24   55 1
    47   25   26 2
    48   25   27 1
    49   27   28 2
    50   27   29 am
    51   29   30 1
    52   29   56 1
    53   30   31 1
    54   30   57 1
    55   30   58 1
    56   31   36 ar
    57   31   32 ar
    58   32   33 ar
    59   32   59 1
    60   33   34 ar
    61   33   60 1
    62   34   35 ar
    63   34   61 1
    64   35   36 ar
    65   36   62 1
