@<TRIPOS>MOLECULE
ZINC01543773
   47    49     0     0     0
SMALL
USER_CHARGES
2-[1-benzyl-3-(carbamoylformyl)-2-ethyl-indol-4-yl]oxyacetic acid
@<TRIPOS>ATOM
      1 C1         -4.4492   -2.2536    1.3450 C.3       1 <0>        -0.1506
      2 C2         -3.9258   -2.4371   -0.0809 C.3       1 <0>        -0.0696
      3 C3         -2.5234   -2.9869   -0.0344 C.2       1 <0>         0.1221
      4 C4         -1.3698   -2.2264    0.0056 C.2       1 <0>        -0.2101
      5 C5         -0.2479   -3.1845    0.0362 C.ar      1 <0>        -0.0958
      6 C6         -0.8319   -4.4598    0.0208 C.ar      1 <0>         0.1345
      7 N1         -2.2020   -4.2935   -0.0253 N.pl3     1 <0>        -0.4551
      8 C7         -3.1730   -5.3899   -0.0590 C.3       1 <0>         0.1483
      9 C8         -3.4586   -5.7641   -1.4906 C.ar      1 <0>        -0.1140
     10 C9         -4.4887   -5.1458   -2.1744 C.ar      1 <0>        -0.1021
     11 C10        -4.7475   -5.4856   -3.4891 C.ar      1 <0>        -0.1201
     12 C11        -3.9830   -6.4512   -4.1168 C.ar      1 <0>        -0.1116
     13 C12        -2.9562   -7.0733   -3.4314 C.ar      1 <0>        -0.1196
     14 C13        -2.6940   -6.7297   -2.1183 C.ar      1 <0>        -0.0948
     15 C14        -0.0135   -5.5849    0.0462 C.ar      1 <0>        -0.1791
     16 C15         1.3571   -5.4412    0.0915 C.ar      1 <0>        -0.0518
     17 C16         1.9359   -4.1823    0.1132 C.ar      1 <0>        -0.2465
     18 C17         1.1403   -3.0499    0.0890 C.ar      1 <0>         0.1869
     19 O1          1.7072   -1.8154    0.1102 O.3       1 <0>        -0.2835
     20 C18         3.1343   -1.7575    0.1577 C.3       1 <0>         0.0177
     21 C19         3.5784   -0.3176    0.1753 C.2       1 <0>         0.4699
     22 O2          2.7571    0.5683    0.1498 O.co2     1 <0>        -0.6115
     23 C20        -1.2792   -0.7673    0.0102 C.2       1 <0>         0.4404
     24 O3         -1.1918   -0.1670    1.0636 O.2       1 <0>        -0.4029
     25 C21        -1.2941   -0.0152   -1.2777 C.2       1 <0>         0.4942
     26 O4         -1.2847   -0.6167   -2.3320 O.2       1 <0>        -0.5080
     27 N2         -1.3180    1.3324   -1.2708 N.am      1 <0>        -0.8268
     28 H1         -4.4530   -3.2156    1.8573 H         1 <0>         0.0564
     29 H2         -3.8041   -1.5584    1.8822 H         1 <0>         0.0661
     30 H3         -5.4635   -1.8559    1.3113 H         1 <0>         0.0651
     31 H4         -3.9220   -1.4750   -0.5933 H         1 <0>         0.0864
     32 H5         -4.5709   -3.1323   -0.6182 H         1 <0>         0.0807
     33 H6         -2.7653   -6.2528    0.4676 H         1 <0>         0.0997
     34 H7         -4.0968   -5.0723    0.4246 H         1 <0>         0.0989
     35 H8         -5.0889   -4.3946   -1.6826 H         1 <0>         0.1229
     36 H9         -5.5499   -4.9999   -4.0244 H         1 <0>         0.1236
     37 H10        -4.1880   -6.7198   -5.1425 H         1 <0>         0.1224
     38 H11        -2.3591   -7.8279   -3.9217 H         1 <0>         0.1239
     39 H12        -1.8921   -7.2160   -1.5827 H         1 <0>         0.1235
     40 H13        -0.4522   -6.5716    0.0301 H         1 <0>         0.1160
     41 H14         1.9861   -6.3189    0.1107 H         1 <0>         0.1259
     42 H15         3.0108   -4.0845    0.1494 H         1 <0>         0.1320
     43 H16         3.4884   -2.2580    1.0590 H         1 <0>         0.0681
     44 H17         3.5475   -2.2545   -0.7200 H         1 <0>         0.0678
     45 H18        -1.3277    1.8215   -2.1084 H         1 <0>         0.4055
     46 H19        -1.3296    1.8130   -0.4283 H         1 <0>         0.4105
     47 O5          4.8863   -0.0191    0.2194 O.co2     1 <0>        -0.7561
@<TRIPOS>BOND
     1    1    2 1
     2    1   28 1
     3    1   29 1
     4    1   30 1
     5    2    3 1
     6    2   31 1
     7    2   32 1
     8    3    7 1
     9    3    4 2
    10    4    5 1
    11    4   23 1
    12    5   18 ar
    13    5    6 ar
    14    6    7 1
    15    6   15 ar
    16    7    8 1
    17    8    9 1
    18    8   33 1
    19    8   34 1
    20    9   14 ar
    21    9   10 ar
    22   10   11 ar
    23   10   35 1
    24   11   12 ar
    25   11   36 1
    26   12   13 ar
    27   12   37 1
    28   13   14 ar
    29   13   38 1
    30   14   39 1
    31   15   16 ar
    32   15   40 1
    33   16   17 ar
    34   16   41 1
    35   17   18 ar
    36   17   42 1
    37   18   19 1
    38   19   20 1
    39   20   21 1
    40   20   43 1
    41   20   44 1
    42   21   22 2
    43   21   47 1
    44   23   24 2
    45   23   25 1
    46   25   26 2
    47   25   27 am
    48   27   45 1
    49   27   46 1
@<TRIPOS>MOLECULE
ZINC04098005
   58    60     0     0     0
SMALL
USER_CHARGES

@<TRIPOS>ATOM
      1 C1          0.3601   -0.4570   -0.7263 C.3       1 <0>        -0.1199
      2 C2          0.7942   -1.8495   -0.3474 C.2       1 <0>        -0.1323
      3 C3          0.9992   -2.1522    0.9106 C.2       1 <0>        -0.1552
      4 C4          0.6778   -1.1496    1.9888 C.3       1 <0>        -0.0471
      5 C5         -0.3701   -1.7204    2.9093 C.ar      1 <0>        -0.0931
      6 C6         -1.7052   -1.4353    2.6981 C.ar      1 <0>        -0.0880
      7 C7         -2.6670   -1.9586    3.5423 C.ar      1 <0>        -0.0950
      8 C8         -2.2955   -2.7684    4.5997 C.ar      1 <0>        -0.0762
      9 C9         -0.9617   -3.0565    4.8151 C.ar      1 <0>        -0.0950
     10 C10         0.0048   -2.5373    3.9661 C.ar      1 <0>         0.1215
     11 O1          1.3171   -2.8242    4.1724 O.3       1 <0>        -0.4888
     12 C11        -0.5575   -3.9392    5.9678 C.3       1 <0>        -0.0542
     13 C12        -0.1924   -3.0824    7.1526 C.2       1 <0>        -0.1614
     14 C13        -0.8243   -3.2340    8.2900 C.2       1 <0>        -0.1260
     15 C14        -2.0046   -4.1669    8.3779 C.3       1 <0>        -0.1243
     16 C15        -0.3710   -2.4754    9.5108 C.3       1 <0>        -0.1186
     17 C16        -4.1227   -1.6455    3.3099 C.3       1 <0>         0.1483
     18 H1         -4.2789   -1.4010    2.2592 H         1 <0>         0.0901
     19 C17        -4.5352   -0.4501    4.1811 C.3       1 <0>        -0.1926
     20 C18        -6.0124   -0.2024    3.9336 C.2       1 <0>         0.4033
     21 O2         -6.4642    0.9203    3.8402 O.2       1 <0>        -0.4320
     22 C19        -6.8658   -1.3895    3.8126 C.ar      1 <0>        -0.2943
     23 C20        -8.2645   -1.2718    3.8388 C.ar      1 <0>         0.2226
     24 C21        -9.0462   -2.4059    3.7107 C.ar      1 <0>        -0.2206
     25 C22        -8.4473   -3.6507    3.5595 C.ar      1 <0>         0.1982
     26 C23        -7.0641   -3.7739    3.5386 C.ar      1 <0>        -0.2013
     27 C24        -6.2632   -2.6527    3.6674 C.ar      1 <0>         0.2150
     28 O3         -4.9155   -2.7804    3.6579 O.3       1 <0>        -0.2964
     29 O4         -9.2219   -4.7572    3.4315 O.3       1 <0>        -0.4901
     30 O5         -8.8450   -0.0554    3.9891 O.3       1 <0>        -0.4788
     31 C25         0.9926   -2.8939   -1.4156 C.3       1 <0>        -0.1180
     32 H2          1.0685    0.2667   -0.3233 H         1 <0>         0.0661
     33 H3          0.3290   -0.3690   -1.8123 H         1 <0>         0.0611
     34 H4         -0.6312   -0.2616   -0.3174 H         1 <0>         0.0644
     35 H5          1.3985   -3.1202    1.1750 H         1 <0>         0.1112
     36 H6          1.5799   -0.9272    2.5588 H         1 <0>         0.0799
     37 H7          0.3011   -0.2340    1.5330 H         1 <0>         0.0799
     38 H8         -1.9978   -0.8027    1.8731 H         1 <0>         0.1274
     39 H9         -3.0487   -3.1757    5.2579 H         1 <0>         0.1304
     40 H10         1.7698   -2.1983    4.7541 H         1 <0>         0.3881
     41 H11        -1.3885   -4.5923    6.2341 H         1 <0>         0.0833
     42 H12         0.3017   -4.5441    5.6783 H         1 <0>         0.0892
     43 H13         0.5902   -2.3434    7.0639 H         1 <0>         0.1061
     44 H14        -1.6522   -5.1829    8.5553 H         1 <0>         0.0678
     45 H15        -2.6515   -3.8580    9.1990 H         1 <0>         0.0628
     46 H16        -2.5638   -4.1344    7.4428 H         1 <0>         0.0671
     47 H17         0.4892   -1.8566    9.2553 H         1 <0>         0.0600
     48 H18        -1.1825   -1.8406    9.8662 H         1 <0>         0.0646
     49 H19        -0.0916   -3.1805   10.2937 H         1 <0>         0.0673
     50 H20        -4.3690   -0.6825    5.2329 H         1 <0>         0.1160
     51 H21        -3.9588    0.4311    3.8991 H         1 <0>         0.1152
     52 H22       -10.1229   -2.3238    3.7285 H         1 <0>         0.1460
     53 H23        -6.6120   -4.7477    3.4219 H         1 <0>         0.1486
     54 H24        -9.4506   -4.9735    2.5172 H         1 <0>         0.4028
     55 H25        -9.0210    0.4021    3.1556 H         1 <0>         0.4033
     56 H26         2.0244   -2.8641   -1.7657 H         1 <0>         0.0658
     57 H27         0.7768   -3.8799   -1.0042 H         1 <0>         0.0619
     58 H28         0.3200   -2.6929   -2.2495 H         1 <0>         0.0633
@<TRIPOS>BOND
     1    1    2 1
     2    1   32 1
     3    1   33 1
     4    1   34 1
     5    2    3 2
     6    2   31 1
     7    3    4 1
     8    3   35 1
     9    4    5 1
    10    4   36 1
    11    4   37 1
    12    5   10 ar
    13    5    6 ar
    14    6    7 ar
    15    6   38 1
    16    7    8 ar
    17    7   17 1
    18    8    9 ar
    19    8   39 1
    20    9   10 ar
    21    9   12 1
    22   10   11 1
    23   11   40 1
    24   12   13 1
    25   12   41 1
    26   12   42 1
    27   13   14 2
    28   13   43 1
    29   14   15 1
    30   14   16 1
    31   15   44 1
    32   15   45 1
    33   15   46 1
    34   16   47 1
    35   16   48 1
    36   16   49 1
    37   17   18 1
    38   17   28 1
    39   17   19 1
    40   19   20 1
    41   19   50 1
    42   19   51 1
    43   20   21 2
    44   20   22 1
    45   22   27 ar
    46   22   23 ar
    47   23   24 ar
    48   23   30 1
    49   24   25 ar
    50   24   52 1
    51   25   26 ar
    52   25   29 1
    53   26   27 ar
    54   26   53 1
    55   27   28 1
    56   29   54 1
    57   30   55 1
    58   31   56 1
    59   31   57 1
    60   31   58 1
@<TRIPOS>MOLECULE
ZINC03914813
   78    81     0     0     0
SMALL
USER_CHARGES
2-[4-(3,7-dihydroxy-10,13-dimethyl-2,3,4,5,6,7,8,9,11,12,14,15,16,17-tetradecahydro-1H-cyclopenta[a]phenanthren-17-yl)pentanoylamino]ethanesulfonic acid
@<TRIPOS>ATOM
      1 C1          3.9742    2.5589    1.0508 C.3       1 <0>        -0.1553
      2 C2          2.7649    2.4438    1.9810 C.3       1 <0>        -0.0857
      3 H1          2.2617    3.4086    2.0438 H         1 <0>         0.0764
      4 C3          3.2323    2.0206    3.3750 C.3       1 <0>        -0.1012
      5 C4          4.1031    3.1247    3.9780 C.3       1 <0>        -0.1411
      6 C5          4.5635    2.7079    5.3511 C.2       1 <0>         0.5037
      7 O1          4.2281    1.6335    5.8029 O.2       1 <0>        -0.5429
      8 N1          5.3479    3.5290    6.0770 N.am      1 <0>        -0.7252
      9 C6          5.7954    3.1238    7.4118 C.3       1 <0>         0.1341
     10 C7          6.6662    4.2280    8.0147 C.3       1 <0>        -0.6907
     11 S1          7.2203    3.7262    9.6675 S.o2      1 <0>         2.6437
     12 O2          6.1156    3.6761   10.5599 O.2       1 <0>        -1.0489
     13 O3          8.1232    2.6332    9.5702 O.2       1 <0>        -1.0490
     14 C8          1.7947    1.3975    1.4290 C.3       1 <0>        -0.0700
     15 H2          2.3030    0.4424    1.2966 H         1 <0>         0.0692
     16 C9          0.5835    1.2335    2.3808 C.3       1 <0>        -0.1263
     17 C10        -0.6829    1.5370    1.5343 C.3       1 <0>        -0.0975
     18 C11        -0.2170    1.2468    0.1033 C.3       1 <0>        -0.0755
     19 H3         -0.1621    0.1717   -0.0677 H         1 <0>         0.0655
     20 C12         1.2052    1.8703    0.1044 C.3       1 <0>        -0.0563
     21 C13         1.9068    1.4031   -1.1556 C.3       1 <0>        -0.1073
     22 C14         1.1391    1.9916   -2.3513 C.3       1 <0>        -0.1163
     23 C15        -0.3264    1.5713   -2.3319 C.3       1 <0>        -0.0729
     24 H4         -0.3851    0.4908   -2.4628 H         1 <0>         0.0721
     25 C16        -0.9953    1.9197   -1.0116 C.3       1 <0>        -0.0680
     26 H5         -0.9685    3.0012   -0.8786 H         1 <0>         0.0888
     27 C17        -2.4398    1.4174   -1.0310 C.3       1 <0>         0.1106
     28 H6         -2.4464    0.3349   -1.1583 H         1 <0>         0.0527
     29 C18        -3.1914    2.0722   -2.1917 C.3       1 <0>        -0.1497
     30 C19        -2.5092    1.7102   -3.5124 C.3       1 <0>        -0.0691
     31 H7         -3.0439    2.1793   -4.3383 H         1 <0>         0.0717
     32 C20        -1.0804    2.2496   -3.4766 C.3       1 <0>        -0.0503
     33 C21        -0.3814    1.8463   -4.8147 C.3       1 <0>        -0.1097
     34 C22        -0.3946    0.3270   -4.9959 C.3       1 <0>        -0.1521
     35 C23        -1.8408   -0.1718   -5.0140 C.3       1 <0>         0.1058
     36 H8         -2.3763    0.2966   -5.8398 H         1 <0>         0.0516
     37 C24        -2.5227    0.1909   -3.6932 C.3       1 <0>        -0.1104
     38 O4         -1.8529   -1.5908   -5.1823 O.3       1 <0>        -0.5693
     39 C25        -1.0634    3.7657   -3.2717 C.3       1 <0>        -0.1449
     40 O5         -3.0785    1.7561    0.2017 O.3       1 <0>        -0.5580
     41 C26         1.1004    3.3967    0.1006 C.3       1 <0>        -0.1514
     42 H9          4.4475    1.5825    0.9475 H         1 <0>         0.0532
     43 H10         3.6475    2.9097    0.0718 H         1 <0>         0.0610
     44 H11         4.6892    3.2667    1.4703 H         1 <0>         0.0534
     45 H12         2.3651    1.8524    4.0135 H         1 <0>         0.0732
     46 H13         3.8122    1.1007    3.3001 H         1 <0>         0.0678
     47 H14         4.9704    3.2929    3.3395 H         1 <0>         0.0920
     48 H15         3.5232    4.0446    4.0529 H         1 <0>         0.0897
     49 H16         5.6161    4.3883    5.7156 H         1 <0>         0.3997
     50 H17         4.9281    2.9557    8.0503 H         1 <0>         0.0756
     51 H18         6.3753    2.2039    7.3369 H         1 <0>         0.0754
     52 H19         7.5335    4.3961    7.3762 H         1 <0>         0.1121
     53 H20         6.0863    5.1479    8.0896 H         1 <0>         0.1122
     54 H21         0.5429    0.2133    2.7623 H         1 <0>         0.0594
     55 H22         0.6595    1.9392    3.2080 H         1 <0>         0.0664
     56 H23        -0.9764    2.5814    1.6401 H         1 <0>         0.0656
     57 H24        -1.5021    0.8748    1.8149 H         1 <0>         0.0642
     58 H25         2.9358    1.7627   -1.1621 H         1 <0>         0.0673
     59 H26         1.8944    0.3143   -1.2050 H         1 <0>         0.0596
     60 H27         1.1988    3.0793   -2.3130 H         1 <0>         0.0690
     61 H28         1.5980    1.6427   -3.2764 H         1 <0>         0.0612
     62 H29        -4.2211    1.7150   -2.2051 H         1 <0>         0.0619
     63 H30        -3.1845    3.1547   -2.0642 H         1 <0>         0.0761
     64 H31         0.6488    2.2019   -4.8022 H         1 <0>         0.0699
     65 H32        -0.9179    2.3153   -5.6396 H         1 <0>         0.0592
     66 H33         0.1413   -0.1420   -4.1707 H         1 <0>         0.0755
     67 H34         0.0905    0.0692   -5.9374 H         1 <0>         0.0631
     68 H35        -1.9877   -0.2781   -2.8674 H         1 <0>         0.0766
     69 H36        -3.5531   -0.1643   -3.7069 H         1 <0>         0.0679
     70 H37        -1.4360   -1.8933   -6.0007 H         1 <0>         0.3771
     71 H38        -0.0323    4.1188   -3.2566 H         1 <0>         0.0610
     72 H39        -1.6010    4.2487   -4.0877 H         1 <0>         0.0528
     73 H40        -1.5449    4.0098   -2.3248 H         1 <0>         0.0651
     74 H41        -3.9996    1.4675    0.2596 H         1 <0>         0.3716
     75 H42         0.5559    3.7257    0.9857 H         1 <0>         0.0568
     76 H43         2.1007    3.8296    0.1077 H         1 <0>         0.0598
     77 H44         0.5700    3.7223   -0.7942 H         1 <0>         0.0590
     78 O6          8.0689    4.8877   10.1649 O.3       1 <0>        -1.0823
@<TRIPOS>BOND
     1    1    2 1
     2    1   42 1
     3    1   43 1
     4    1   44 1
     5    2    3 1
     6    2    4 1
     7    2   14 1
     8    4    5 1
     9    4   45 1
    10    4   46 1
    11    5    6 1
    12    5   47 1
    13    5   48 1
    14    6    7 2
    15    6    8 am
    16    8    9 1
    17    8   49 1
    18    9   10 1
    19    9   50 1
    20    9   51 1
    21   10   11 1
    22   10   52 1
    23   10   53 1
    24   11   12 2
    25   11   13 2
    26   11   78 1
    27   14   15 1
    28   14   20 1
    29   14   16 1
    30   16   17 1
    31   16   54 1
    32   16   55 1
    33   17   18 1
    34   17   56 1
    35   17   57 1
    36   18   19 1
    37   18   25 1
    38   18   20 1
    39   20   21 1
    40   20   41 1
    41   21   22 1
    42   21   58 1
    43   21   59 1
    44   22   23 1
    45   22   60 1
    46   22   61 1
    47   23   24 1
    48   23   32 1
    49   23   25 1
    50   25   26 1
    51   25   27 1
    52   27   28 1
    53   27   29 1
    54   27   40 1
    55   29   30 1
    56   29   62 1
    57   29   63 1
    58   30   31 1
    59   30   37 1
    60   30   32 1
    61   32   33 1
    62   32   39 1
    63   33   34 1
    64   33   64 1
    65   33   65 1
    66   34   35 1
    67   34   66 1
    68   34   67 1
    69   35   36 1
    70   35   37 1
    71   35   38 1
    72   37   68 1
    73   37   69 1
    74   38   70 1
    75   39   71 1
    76   39   72 1
    77   39   73 1
    78   40   74 1
    79   41   75 1
    80   41   76 1
    81   41   77 1
@<TRIPOS>MOLECULE
ZINC05977595
   66    68     0     0     0
SMALL
USER_CHARGES
5-hydroxy-4-[6-hydroxy-5-[4-methyl-6-(2,6,6-trimethyl-1-cyclohexenyl)-hex-3-enyl]-3,6-dihydro-2H-pyran-2-yl]-5H-furan-2-one
@<TRIPOS>ATOM
      1 C1         -3.8369    8.6334   -8.3974 C.3       1 <0>        -0.1273
      2 C2         -3.5563    8.3509   -9.8508 C.2       1 <0>        -0.1223
      3 C3         -2.8213    7.3251  -10.1389 C.2       1 <0>        -0.1126
      4 C4         -2.4440    6.9267  -11.5356 C.3       1 <0>        -0.0219
      5 C5         -3.3748    7.6055  -12.5452 C.3       1 <0>        -0.1103
      6 C6         -3.4324    9.1026  -12.2163 C.3       1 <0>        -0.1225
      7 C7         -4.1469    9.2761  -10.8742 C.3       1 <0>        -0.0816
      8 C8         -0.9984    7.3463  -11.8097 C.3       1 <0>        -0.1384
      9 C9         -2.5643    5.4083  -11.6799 C.3       1 <0>        -0.1430
     10 C10        -2.3074    6.4820   -9.0004 C.3       1 <0>        -0.0813
     11 C11        -3.2520    5.2998   -8.7744 C.3       1 <0>        -0.0867
     12 C12        -2.7381    4.4568   -7.6359 C.2       1 <0>        -0.1222
     13 C13        -3.1921    4.6483   -6.4221 C.2       1 <0>        -0.1666
     14 C14        -2.5943    3.8893   -5.2655 C.3       1 <0>        -0.0880
     15 C15        -2.1253    4.8769   -4.1953 C.3       1 <0>        -0.0744
     16 C16        -1.5275    4.1179   -3.0387 C.2       1 <0>        -0.1432
     17 C17        -0.2400    3.9419   -3.0097 C.2       1 <0>        -0.1249
     18 C18         0.4485    3.1913   -1.9033 C.3       1 <0>        -0.1205
     19 C19        -0.4934    3.0690   -0.7022 C.3       1 <0>         0.1462
     20 H1         -0.5998    4.0398   -0.2180 H         1 <0>         0.0946
     21 O1         -1.7708    2.6219   -1.1733 O.3       1 <0>        -0.3676
     22 C20        -2.4457    3.5981   -1.9693 C.3       1 <0>         0.2953
     23 H2         -3.3206    3.1433   -2.4339 H         1 <0>         0.1113
     24 O2         -2.8614    4.6829   -1.1370 O.3       1 <0>        -0.5710
     25 C21         0.0633    2.0705    0.2797 C.2       1 <0>        -0.0733
     26 C22         0.4647    2.3201    1.5251 C.2       1 <0>        -0.1927
     27 C23         0.9401    1.0801    2.1446 C.2       1 <0>         0.5040
     28 O3          1.3712    0.9869    3.2771 O.2       1 <0>        -0.4395
     29 O4          0.8294    0.0597    1.2735 O.3       1 <0>        -0.3467
     30 C24         0.2731    0.5937    0.0394 C.3       1 <0>         0.2756
     31 H3          0.9718    0.4429   -0.7835 H         1 <0>         0.1245
     32 O5         -0.9743   -0.0394   -0.2525 O.3       1 <0>        -0.5200
     33 C25        -1.7019    3.3933   -7.8937 C.3       1 <0>        -0.1184
     34 H4         -3.0637    9.2906   -7.9992 H         1 <0>         0.0640
     35 H5         -4.8091    9.1170   -8.3023 H         1 <0>         0.0585
     36 H6         -3.8407    7.6971   -7.8394 H         1 <0>         0.0690
     37 H7         -4.3740    7.1760  -12.4740 H         1 <0>         0.0638
     38 H8         -2.9875    7.4668  -13.5546 H         1 <0>         0.0643
     39 H9         -3.9841    9.6281  -12.9957 H         1 <0>         0.0639
     40 H10        -2.4204    9.5017  -12.1469 H         1 <0>         0.0663
     41 H11        -5.2061    9.0502  -10.9970 H         1 <0>         0.0708
     42 H12        -4.0339   10.3066  -10.5376 H         1 <0>         0.0688
     43 H13        -0.3358    6.8529  -11.0986 H         1 <0>         0.0547
     44 H14        -0.7224    7.0577  -12.8240 H         1 <0>         0.0560
     45 H15        -0.9071    8.4271  -11.7019 H         1 <0>         0.0565
     46 H16        -3.5918    5.1046  -11.4793 H         1 <0>         0.0571
     47 H17        -2.2907    5.1168  -12.6939 H         1 <0>         0.0543
     48 H18        -1.8963    4.9217  -10.9692 H         1 <0>         0.0604
     49 H19        -2.2581    7.0861   -8.0944 H         1 <0>         0.0727
     50 H20        -1.3120    6.1104   -9.2439 H         1 <0>         0.0661
     51 H21        -3.3013    4.6958   -9.6804 H         1 <0>         0.0791
     52 H22        -4.2473    5.6715   -8.5309 H         1 <0>         0.0657
     53 H23        -3.9947    5.3502   -6.2503 H         1 <0>         0.1077
     54 H24        -1.7450    3.3028   -5.6159 H         1 <0>         0.0724
     55 H25        -3.3455    3.2232   -4.8411 H         1 <0>         0.0684
     56 H26        -2.9746    5.4634   -3.8449 H         1 <0>         0.0764
     57 H27        -1.3741    5.5430   -4.6198 H         1 <0>         0.0730
     58 H28         0.3582    4.3503   -3.8109 H         1 <0>         0.1233
     59 H29         1.3487    3.7290   -1.6054 H         1 <0>         0.0937
     60 H30         0.7202    2.1958   -2.2544 H         1 <0>         0.0888
     61 H31        -3.4653    4.4250   -0.4272 H         1 <0>         0.3878
     62 H32         0.4429    3.2876    2.0044 H         1 <0>         0.1766
     63 H33        -0.9062   -0.9924   -0.4018 H         1 <0>         0.3955
     64 H34        -2.0668    2.4339   -7.5268 H         1 <0>         0.0653
     65 H35        -1.5111    3.3240   -8.9647 H         1 <0>         0.0596
     66 H36        -0.7784    3.6528   -7.3762 H         1 <0>         0.0648
@<TRIPOS>BOND
     1    1    2 1
     2    1   34 1
     3    1   35 1
     4    1   36 1
     5    2    7 1
     6    2    3 2
     7    3    4 1
     8    3   10 1
     9    4    5 1
    10    4    8 1
    11    4    9 1
    12    5    6 1
    13    5   37 1
    14    5   38 1
    15    6    7 1
    16    6   39 1
    17    6   40 1
    18    7   41 1
    19    7   42 1
    20    8   43 1
    21    8   44 1
    22    8   45 1
    23    9   46 1
    24    9   47 1
    25    9   48 1
    26   10   11 1
    27   10   49 1
    28   10   50 1
    29   11   12 1
    30   11   51 1
    31   11   52 1
    32   12   13 2
    33   12   33 1
    34   13   14 1
    35   13   53 1
    36   14   15 1
    37   14   54 1
    38   14   55 1
    39   15   16 1
    40   15   56 1
    41   15   57 1
    42   16   22 1
    43   16   17 2
    44   17   18 1
    45   17   58 1
    46   18   19 1
    47   18   59 1
    48   18   60 1
    49   19   20 1
    50   19   21 1
    51   19   25 1
    52   21   22 1
    53   22   23 1
    54   22   24 1
    55   24   61 1
    56   25   30 1
    57   25   26 2
    58   26   27 1
    59   26   62 1
    60   27   28 2
    61   27   29 1
    62   29   30 1
    63   30   31 1
    64   30   32 1
    65   32   63 1
    66   33   64 1
    67   33   65 1
    68   33   66 1
@<TRIPOS>MOLECULE
ZINC03869685
   32    34     0     0     0
SMALL
USER_CHARGES

@<TRIPOS>ATOM
      1 C1          0.9741   -0.2755   -0.9644 C.ar      1 <0>        -0.0748
      2 C2          2.1569    0.4329   -0.9701 C.ar      1 <0>        -0.1346
      3 C3          2.3856    1.4156   -0.0177 C.ar      1 <0>         0.1032
      4 C4          1.4203    1.6918    0.9495 C.ar      1 <0>         0.0788
      5 C5          0.2328    0.9863    0.9617 C.ar      1 <0>        -0.0762
      6 C6          0.0021   -0.0041    0.0020 C.ar      1 <0>        -0.0447
      7 C7         -1.2637   -0.7605    0.0100 C.2       1 <0>         0.1350
      8 C8         -2.4363   -0.0759    0.1235 C.2       1 <0>        -0.0429
      9 C9         -3.6628   -0.7894    0.1327 C.2       1 <0>         0.4011
     10 O1         -4.7327   -0.2102    0.2323 O.2       1 <0>        -0.4484
     11 C10        -3.5946   -2.2549    0.0170 C.ar      1 <0>        -0.2690
     12 C11        -4.7561   -3.0387    0.0170 C.ar      1 <0>         0.2244
     13 C12        -4.6504   -4.4123   -0.0941 C.ar      1 <0>        -0.2081
     14 C13        -3.3994   -5.0103   -0.2044 C.ar      1 <0>         0.2000
     15 C14        -2.2463   -4.2416   -0.2047 C.ar      1 <0>        -0.1854
     16 C15        -2.3316   -2.8618   -0.0952 C.ar      1 <0>         0.1876
     17 O2         -1.2182   -2.0992   -0.1003 O.3       1 <0>        -0.1970
     18 O3         -3.3070   -6.3605   -0.3125 O.3       1 <0>        -0.4866
     19 O4         -5.9758   -2.4535    0.1257 O.3       1 <0>        -0.4726
     20 O5         -2.4312    1.2810    0.2275 O.3       1 <0>        -0.4502
     21 O6          1.6480    2.6557    1.8815 O.3       1 <0>        -0.4836
     22 O7          3.5534    2.1101   -0.0273 O.3       1 <0>        -0.4861
     23 H1          0.7971   -1.0371   -1.7094 H         1 <0>         0.1379
     24 H2          2.9075    0.2221   -1.7176 H         1 <0>         0.1421
     25 H3         -0.5155    1.1988    1.7108 H         1 <0>         0.1429
     26 H4         -5.5413   -5.0229   -0.0948 H         1 <0>         0.1515
     27 H5         -1.2805   -4.7174   -0.2903 H         1 <0>         0.1559
     28 H6         -3.3257   -6.6843   -1.2235 H         1 <0>         0.4050
     29 H7         -6.3751   -2.2160   -0.7224 H         1 <0>         0.4036
     30 H8         -3.3120    1.6729    0.3033 H         1 <0>         0.4079
     31 H9          1.3508    3.5370    1.6166 H         1 <0>         0.3905
     32 H10         3.5287    2.9137   -0.5647 H         1 <0>         0.3924
@<TRIPOS>BOND
     1    1    6 ar
     2    1    2 ar
     3    1   23 1
     4    2    3 ar
     5    2   24 1
     6    3    4 ar
     7    3   22 1
     8    4    5 ar
     9    4   21 1
    10    5    6 ar
    11    5   25 1
    12    6    7 1
    13    7   17 1
    14    7    8 2
    15    8    9 1
    16    8   20 1
    17    9   10 2
    18    9   11 1
    19   11   16 ar
    20   11   12 ar
    21   12   13 ar
    22   12   19 1
    23   13   14 ar
    24   13   26 1
    25   14   15 ar
    26   14   18 1
    27   15   16 ar
    28   15   27 1
    29   16   17 1
    30   18   28 1
    31   19   29 1
    32   20   30 1
    33   21   31 1
    34   22   32 1
@<TRIPOS>MOLECULE
ZINC03869685
   31    33     0     0     0
SMALL
USER_CHARGES

@<TRIPOS>ATOM
      1 C1          0.1390    1.1246   -0.8120 C.ar      1 <0>        -0.0626
      2 C2          1.3229    1.8301   -0.8179 C.ar      1 <0>        -0.1333
      3 C3          2.3812    1.4233   -0.0172 C.ar      1 <0>         0.0878
      4 C4          2.2522    0.2984    0.7970 C.ar      1 <0>         0.0757
      5 C5          1.0694   -0.4139    0.8086 C.ar      1 <0>        -0.0997
      6 C6          0.0021   -0.0041    0.0020 C.ar      1 <0>        -0.0194
      7 C7         -1.2620   -0.7597    0.0100 C.2       1 <0>         0.1007
      8 C8         -2.4587   -0.0763    0.1245 C.2       1 <0>        -0.0038
      9 C9         -3.6655   -0.7872    0.1324 C.2       1 <0>         0.3349
     10 C10        -3.6167   -2.1939    0.0219 C.2       1 <0>        -0.3331
     11 C11        -4.8018   -2.9593    0.0240 C.2       1 <0>         0.2664
     12 C12        -4.7326   -4.3182   -0.0844 C.2       1 <0>        -0.3749
     13 C13        -3.4871   -4.9570   -0.1979 C.2       1 <0>         0.3648
     14 O1         -3.4307   -6.2860   -0.3033 O.2       1 <0>        -0.6598
     15 C14        -2.3054   -4.2086   -0.2016 C.2       1 <0>        -0.3143
     16 C15        -2.3616   -2.8325   -0.0921 C.2       1 <0>         0.2118
     17 O2         -1.2290   -2.0988   -0.0996 O.3       1 <0>        -0.2018
     18 O3         -6.0073   -2.3463    0.1339 O.3       1 <0>        -0.4482
     19 O4         -4.8484   -0.1420    0.2437 O.3       1 <0>        -0.5747
     20 O5         -2.4638    1.2803    0.2294 O.3       1 <0>        -0.4649
     21 O6          3.2919   -0.0973    1.5794 O.3       1 <0>        -0.4856
     22 O7          3.5458    2.1225   -0.0269 O.3       1 <0>        -0.4881
     23 H1         -0.6843    1.4460   -1.4327 H         1 <0>         0.1397
     24 H2          1.4276    2.7014   -1.4473 H         1 <0>         0.1381
     25 H3          0.9685   -1.2854    1.4384 H         1 <0>         0.1410
     26 H4         -5.6395   -4.9047   -0.0825 H         1 <0>         0.1180
     27 H5         -1.3506   -4.7057   -0.2895 H         1 <0>         0.1230
     28 H6         -6.7597   -2.9537    0.1258 H         1 <0>         0.3847
     29 H7         -3.3475    1.6656    0.3047 H         1 <0>         0.4058
     30 H8          3.2925    0.2977    2.4620 H         1 <0>         0.3855
     31 H9          3.5825    2.8346    0.6263 H         1 <0>         0.3863
@<TRIPOS>BOND
     1    1    6 ar
     2    1    2 ar
     3    1   23 1
     4    2    3 ar
     5    2   24 1
     6    3    4 ar
     7    3   22 1
     8    4    5 ar
     9    4   21 1
    10    5    6 ar
    11    5   25 1
    12    6    7 1
    13    7   17 1
    14    7    8 2
    15    8    9 1
    16    8   20 1
    17    9   10 2
    18    9   19 1
    19   10   16 1
    20   10   11 1
    21   11   12 2
    22   11   18 1
    23   12   13 1
    24   12   26 1
    25   13   14 2
    26   13   15 1
    27   15   16 2
    28   15   27 1
    29   16   17 1
    30   18   28 1
    31   20   29 1
    32   21   30 1
    33   22   31 1
