@<TRIPOS>MOLECULE
ZINC03938676
   47    50     0     0     0
SMALL
USER_CHARGES
2-[1-benzyl-5-[4-(trifluoromethoxy)phenyl]-indol-3-yl]-2-oxo-acetic acid
@<TRIPOS>ATOM
      1 C1         -5.4183   -3.0469   -3.9988 C.ar      1 <0>        -0.1129
      2 C2         -4.1673   -3.2855   -3.4613 C.ar      1 <0>        -0.1199
      3 C3         -3.8886   -2.9028   -2.1626 C.ar      1 <0>        -0.0955
      4 C4         -4.8609   -2.2814   -1.4014 C.ar      1 <0>        -0.1152
      5 C5         -6.1136   -2.0476   -1.9371 C.ar      1 <0>        -0.0985
      6 C6         -6.3907   -2.4256   -3.2376 C.ar      1 <0>        -0.1234
      7 C7         -4.5572   -1.8646    0.0146 C.3       1 <0>         0.1456
      8 N1         -4.0282   -0.4985    0.0187 N.pl3     1 <0>        -0.4649
      9 C8         -2.7202   -0.1858    0.0144 C.2       1 <0>         0.1489
     10 C9         -2.5718    1.1887    0.0207 C.2       1 <0>        -0.2541
     11 C10        -3.9378    1.7485    0.0362 C.ar      1 <0>        -0.0603
     12 C11        -4.8049    0.6434    0.0280 C.ar      1 <0>         0.0869
     13 C12        -6.1811    0.8519    0.0357 C.ar      1 <0>        -0.1198
     14 C13        -6.6857    2.1320    0.0448 C.ar      1 <0>        -0.0983
     15 C14        -5.8260    3.2335    0.0470 C.ar      1 <0>        -0.0813
     16 C15        -4.4491    3.0405    0.0394 C.ar      1 <0>        -0.0498
     17 C16        -6.3823    4.6088    0.0569 C.ar      1 <0>        -0.0360
     18 C17        -5.5258    5.7085    0.0649 C.ar      1 <0>        -0.0742
     19 C18        -6.0460    6.9858    0.0688 C.ar      1 <0>        -0.1812
     20 C19        -7.4210    7.1768    0.0760 C.ar      1 <0>         0.0900
     21 C20        -8.2765    6.0835    0.0738 C.ar      1 <0>        -0.1188
     22 C21        -7.7623    4.8038    0.0641 C.ar      1 <0>        -0.0837
     23 O1         -7.9305    8.4364    0.0855 O.3       1 <0>        -0.3121
     24 C22        -6.9935    9.5153    0.0872 C.3       1 <0>         0.6031
     25 F1         -6.1952    9.4414   -1.0593 F         1 <0>        -0.1641
     26 F2         -7.6835   10.7323    0.0974 F         1 <0>        -0.1343
     27 F3         -6.1844    9.4284    1.2252 F         1 <0>        -0.1641
     28 C23        -1.3159    1.9368    0.0188 C.2       1 <0>         0.3855
     29 O2         -1.3324    3.1522    0.0255 O.2       1 <0>        -0.4580
     30 C24        -0.0144    1.2087    0.0087 C.2       1 <0>         0.4414
     31 O3          0.0021   -0.0041    0.0020 O.co2     1 <0>        -0.6169
     32 H1         -5.6362   -3.3462   -5.0134 H         1 <0>         0.1217
     33 H2         -3.4078   -3.7712   -4.0559 H         1 <0>         0.1249
     34 H3         -2.9113   -3.0895   -1.7425 H         1 <0>         0.1279
     35 H4         -6.8746   -1.5661   -1.3409 H         1 <0>         0.1209
     36 H5         -7.3682   -2.2395   -3.6574 H         1 <0>         0.1223
     37 H6         -3.8178   -2.5418    0.4421 H         1 <0>         0.1053
     38 H7         -5.4706   -1.9023    0.6083 H         1 <0>         0.0962
     39 H8         -1.9096   -0.8994    0.0071 H         1 <0>         0.2039
     40 H9         -6.8542    0.0072    0.0341 H         1 <0>         0.1177
     41 H10        -7.7545    2.2866    0.0508 H         1 <0>         0.1258
     42 H11        -3.7813    3.8893    0.0411 H         1 <0>         0.1341
     43 H12        -4.4560    5.5604    0.0635 H         1 <0>         0.1411
     44 H13        -5.3829    7.8382    0.0709 H         1 <0>         0.1343
     45 H14        -9.3458    6.2352    0.0793 H         1 <0>         0.1377
     46 H15        -8.4284    3.9536    0.0624 H         1 <0>         0.1395
     47 O4          1.1418    1.8974    0.0013 O.co2     1 <0>        -0.7173
@<TRIPOS>BOND
     1    1    6 ar
     2    1    2 ar
     3    1   32 1
     4    2    3 ar
     5    2   33 1
     6    3    4 ar
     7    3   34 1
     8    4    5 ar
     9    4    7 1
    10    5    6 ar
    11    5   35 1
    12    6   36 1
    13    7    8 1
    14    7   37 1
    15    7   38 1
    16    8   12 1
    17    8    9 1
    18    9   10 2
    19    9   39 1
    20   10   11 1
    21   10   28 1
    22   11   16 ar
    23   11   12 ar
    24   12   13 ar
    25   13   14 ar
    26   13   40 1
    27   14   15 ar
    28   14   41 1
    29   15   16 ar
    30   15   17 1
    31   16   42 1
    32   17   22 ar
    33   17   18 ar
    34   18   19 ar
    35   18   43 1
    36   19   20 ar
    37   19   44 1
    38   20   21 ar
    39   20   23 1
    40   21   22 ar
    41   21   45 1
    42   22   46 1
    43   23   24 1
    44   24   25 1
    45   24   26 1
    46   24   27 1
    47   28   29 2
    48   28   30 1
    49   30   31 2
    50   30   47 1
