@<TRIPOS>MOLECULE
ZINC28087711
   25    24     0     0     0
SMALL
USER_CHARGES
7-aminoheptan-2-one
@<TRIPOS>ATOM
      1 C1         -3.1594    7.9636   -4.3969 C.3       1 <0>        -0.2116
      2 C2         -2.4212    7.1797   -3.3426 C.2       1 <0>         0.3536
      3 O1         -1.8278    7.7586   -2.4646 O.2       1 <0>        -0.4597
      4 C3         -2.4236    5.6732   -3.3840 C.3       1 <0>        -0.1770
      5 C4         -1.6071    5.1295   -2.2099 C.3       1 <0>        -0.1159
      6 C5         -1.6095    3.6001   -2.2519 C.3       1 <0>        -0.1200
      7 C6         -0.7931    3.0563   -1.0777 C.3       1 <0>        -0.1528
      8 C7         -0.7955    1.5269   -1.1198 C.3       1 <0>        -0.0034
      9 N1         -0.0116    1.0048    0.0076 N.4       1 <0>        -0.6880
     10 H1         -3.6342    7.2687   -5.1052 H         1 <0>         0.0832
     11 H2         -2.4513    8.6100   -4.9362 H         1 <0>         0.0960
     12 H3         -3.9315    8.5843   -3.9188 H         1 <0>         0.0960
     13 H4         -3.4581    5.3061   -3.3124 H         1 <0>         0.1020
     14 H5         -1.9780    5.3317   -4.3299 H         1 <0>         0.1020
     15 H6         -0.5727    5.4967   -2.2815 H         1 <0>         0.0722
     16 H7         -2.0528    5.4710   -1.2640 H         1 <0>         0.0722
     17 H8         -2.6440    3.2330   -2.1804 H         1 <0>         0.0751
     18 H9         -1.1638    3.2585   -3.1978 H         1 <0>         0.0751
     19 H10         0.2414    3.4235   -1.1491 H         1 <0>         0.0868
     20 H11        -1.2389    3.3978   -0.1318 H         1 <0>         0.0868
     21 H12        -1.8300    1.1598   -1.0484 H         1 <0>         0.1278
     22 H13        -0.3498    1.1854   -2.0657 H         1 <0>         0.1278
     23 H14        -0.0133   -0.0948   -0.0227 H         1 <0>         0.4594
     24 H15        -0.4574    1.3463    0.9535 H         1 <0>         0.4562
     25 H16         1.0228    1.3720   -0.0639 H         1 <0>         0.4562
@<TRIPOS>BOND
     1    1    2 1
     2    1   10 1
     3    1   11 1
     4    1   12 1
     5    2    3 2
     6    2    4 1
     7    4    5 1
     8    4   13 1
     9    4   14 1
    10    5    6 1
    11    5   15 1
    12    5   16 1
    13    6    7 1
    14    6   17 1
    15    6   18 1
    16    7    8 1
    17    7   19 1
    18    7   20 1
    19    8    9 1
    20    8   21 1
    21    8   22 1
    22    9   23 1
    23    9   24 1
    24    9   25 1
@<TRIPOS>MOLECULE
ZINC03874176
   36    35     0     0     0
SMALL
USER_CHARGES
N,N'-dibuta-2,3-dienylbutane-1,4-diamine
@<TRIPOS>ATOM
      1 C1          0.0198   -1.3109   -0.0052 C.2       1 <0>        -0.0910
      2 C2          0.0021   -0.0041    0.0020 C.1       1 <0>        -0.1418
      3 C3         -0.0156    1.3028    0.0092 C.2       1 <0>        -0.2062
      4 C4         -1.3308    2.0385    0.0194 C.3       1 <0>         0.0527
      5 C5         -2.6354    3.7010    1.2013 C.3       1 <0>        -0.0061
      6 C6         -2.6335    4.6532    2.3989 C.3       1 <0>        -0.1494
      7 C7         -3.9567    5.4201    2.4427 C.3       1 <0>        -0.1491
      8 C8         -3.9548    6.3723    3.6403 C.3       1 <0>        -0.0103
      9 C9         -5.2594    8.0348    4.8222 C.3       1 <0>         0.0941
     10 C10        -6.5746    8.7705    4.8324 C.2       1 <0>        -0.3546
     11 C11        -7.3288    8.7459    5.8995 C.1       1 <0>         0.0510
     12 C12        -8.0831    8.7213    6.9666 C.2       1 <0>        -0.2215
     13 H1          0.0182   -1.8458   -0.9434 H         1 <0>         0.1518
     14 H2          0.0361   -1.8559    0.9271 H         1 <0>         0.1514
     15 H3          0.9122    1.8555    0.0033 H         1 <0>         0.1509
     16 H4         -1.4403    2.5999   -0.9084 H         1 <0>         0.1388
     17 H5         -2.1473    1.3219    0.1090 H         1 <0>         0.1303
     18 H6         -2.7539    4.2740    0.2817 H         1 <0>         0.1351
     19 H7         -3.4609    2.9959    1.2991 H         1 <0>         0.1336
     20 H8         -2.5150    4.0802    3.3185 H         1 <0>         0.0982
     21 H9         -1.8080    5.3583    2.3011 H         1 <0>         0.0993
     22 H10        -4.0752    5.9931    1.5231 H         1 <0>         0.0989
     23 H11        -4.7822    4.7151    2.5405 H         1 <0>         0.0978
     24 H12        -3.8363    5.7994    4.5599 H         1 <0>         0.1316
     25 H13        -3.1293    7.0774    3.5425 H         1 <0>         0.1337
     26 H14        -5.1499    7.4734    5.7500 H         1 <0>         0.1208
     27 H15        -4.4429    8.7514    4.7326 H         1 <0>         0.1445
     28 H16        -6.8938    9.3181    3.9580 H         1 <0>         0.1672
     29 H17        -8.8253    7.9458    7.0855 H         1 <0>         0.1824
     30 H18        -7.9641    9.4764    7.7295 H         1 <0>         0.1773
     31 N1         -1.3570    2.9658    1.1663 N.4       1 <0>        -0.5187
     32 H19        -0.5836    3.6354    1.0782 H         1 <0>         0.4349
     33 H20        -1.2497    2.4314    2.0364 H         1 <0>         0.4343
     34 N2         -5.2332    7.1075    3.6753 N.4       1 <0>        -0.5283
     35 H21        -6.0066    6.4379    3.7634 H         1 <0>         0.4326
     36 H22        -5.3405    7.6419    2.8052 H         1 <0>         0.4335
@<TRIPOS>BOND
     1    1    2 2
     2    1   13 1
     3    1   14 1
     4    2    3 2
     5    3    4 1
     6    3   15 1
     7    4   16 1
     8    4   17 1
     9    4   31 1
    10    5    6 1
    11    5   18 1
    12    5   19 1
    13    5   31 1
    14    6    7 1
    15    6   20 1
    16    6   21 1
    17    7    8 1
    18    7   22 1
    19    7   23 1
    20    8   24 1
    21    8   25 1
    22    8   34 1
    23    9   10 1
    24    9   26 1
    25    9   27 1
    26    9   34 1
    27   10   11 2
    28   10   28 1
    29   11   12 2
    30   12   29 1
    31   12   30 1
    32   31   32 1
    33   31   33 1
    34   34   35 1
    35   34   36 1
@<TRIPOS>MOLECULE
ZINC26148832
   28    27     0     0     0
SMALL
USER_CHARGES
N-buta-2,3-dienylbutane-1,4-diamine
@<TRIPOS>ATOM
      1 C1          0.0198   -1.3109   -0.0052 C.2       1 <0>        -0.0974
      2 C2          0.0021   -0.0041    0.0020 C.1       1 <0>        -0.1463
      3 C3         -0.0156    1.3028    0.0092 C.2       1 <0>        -0.2052
      4 C4         -1.3308    2.0385    0.0194 C.3       1 <0>         0.0543
      5 N1         -1.3650    2.9646    1.1592 N.4       1 <0>        -0.5383
      6 C5         -2.6354    3.7010    1.2013 C.3       1 <0>        -0.0068
      7 C6         -2.6335    4.6532    2.3989 C.3       1 <0>        -0.1492
      8 C7         -3.9567    5.4201    2.4427 C.3       1 <0>        -0.1516
      9 C8         -3.9548    6.3723    3.6403 C.3       1 <0>        -0.0025
     10 N2         -5.2252    7.1087    3.6824 N.4       1 <0>        -0.6902
     11 H1          0.0272   -1.8556   -0.9608 H         1 <0>         0.1551
     12 H2          0.0273   -1.8661    0.9444 H         1 <0>         0.1546
     13 H3          0.9295    1.8657    0.0078 H         1 <0>         0.1528
     14 H4         -1.4412    2.6052   -0.9169 H         1 <0>         0.1355
     15 H5         -2.1548    1.3154    0.1096 H         1 <0>         0.1274
     16 H6         -1.2546    2.3979    2.0955 H         1 <0>         0.4518
     17 H7         -2.7549    4.2793    0.2732 H         1 <0>         0.1315
     18 H8         -3.4685    2.9896    1.2998 H         1 <0>         0.1302
     19 H9         -2.5139    4.0749    3.3269 H         1 <0>         0.0981
     20 H10        -1.8004    5.3647    2.3004 H         1 <0>         0.0987
     21 H11        -4.0762    5.9984    1.5146 H         1 <0>         0.0976
     22 H12        -4.7898    4.7086    2.5412 H         1 <0>         0.0972
     23 H13        -3.8353    5.7940    4.5683 H         1 <0>         0.1315
     24 H14        -3.1217    7.0838    3.5418 H         1 <0>         0.1317
     25 H15        -5.2238    7.7933    4.5434 H         1 <0>         0.4684
     26 H16        -6.0583    6.3972    3.7810 H         1 <0>         0.4594
     27 H17        -0.5410    3.6877    1.0690 H         1 <0>         0.4524
     28 H18        -5.3447    7.6870    2.7543 H         1 <0>         0.4595
@<TRIPOS>BOND
     1    1    2 2
     2    1   11 1
     3    1   12 1
     4    2    3 2
     5    3    4 1
     6    3   13 1
     7    4    5 1
     8    4   14 1
     9    4   15 1
    10    5    6 1
    11    5   16 1
    12    5   27 1
    13    6    7 1
    14    6   17 1
    15    6   18 1
    16    7    8 1
    17    7   19 1
    18    7   20 1
    19    8    9 1
    20    8   21 1
    21    8   22 1
    22    9   10 1
    23    9   23 1
    24    9   24 1
    25   10   25 1
    26   10   26 1
    27   10   28 1
