@<TRIPOS>MOLECULE
ZINC49069486
   42    45     0     0     0
SMALL
USER_CHARGES

@<TRIPOS>ATOM
      1 C1         -0.0166    1.3741    0.0096 C.ar      1 <0>        -0.1357
      2 C2          1.1625    2.0972    0.0022 C.ar      1 <0>        -0.0439
      3 C3          2.3915    1.4385   -0.0135 C.ar      1 <0>        -0.1423
      4 C4          2.4242    0.0373   -0.0213 C.ar      1 <0>         0.1179
      5 C5          1.2211   -0.6891   -0.0132 C.ar      1 <0>         0.0349
      6 C6          0.0021   -0.0041    0.0020 C.ar      1 <0>        -0.0202
      7 N1          1.5485   -2.0050   -0.0242 N.2       1 <0>        -0.4466
      8 C7          2.8528   -2.1316   -0.0382 C.2       1 <0>         0.2898
      9 N2          3.4375   -0.8930   -0.0370 N.pl3     1 <0>        -0.5726
     10 H1          4.3894   -0.7064   -0.0459 H         1 <0>         0.4345
     11 C8          3.5828   -3.4170   -0.0531 C.ar      1 <0>        -0.0286
     12 C9          4.9784   -3.4308   -0.0612 C.ar      1 <0>        -0.0617
     13 C10         5.6536   -4.6333   -0.0751 C.ar      1 <0>        -0.0932
     14 C11         4.9515   -5.8261   -0.0812 C.ar      1 <0>        -0.1012
     15 C12         3.5690   -5.8222   -0.0733 C.ar      1 <0>        -0.1651
     16 C13         2.8787   -4.6243   -0.0535 C.ar      1 <0>         0.1649
     17 F1          1.5278   -4.6208   -0.0401 F         1 <0>        -0.0969
     18 C14         5.6976   -7.1353   -0.0969 C.3       1 <0>         0.0782
     19 H2          6.7236   -6.9813    0.2370 H         1 <0>         0.1542
     20 C15         5.6926   -7.7253   -1.5229 C.3       1 <0>        -0.1349
     21 C16         5.5213   -9.2465   -1.2711 C.3       1 <0>        -0.1434
     22 C17         4.5807   -9.2560   -0.0404 C.3       1 <0>        -0.0107
     23 N3          5.0240   -8.1071    0.7839 N.4       1 <0>        -0.5171
     24 C18         3.6483    2.2109   -0.0223 C.2       1 <0>         0.5700
     25 O1          4.7175    1.6322   -0.0360 O.2       1 <0>        -0.5569
     26 N4          3.6113    3.5582   -0.0152 N.am      1 <0>        -0.8431
     27 H3         -0.9624    1.8952    0.0260 H         1 <0>         0.1463
     28 H4          1.1312    3.1767    0.0083 H         1 <0>         0.1412
     29 H5         -0.9263   -0.5558    0.0082 H         1 <0>         0.1427
     30 H6          5.5286   -2.5015   -0.0568 H         1 <0>         0.1468
     31 H7          6.7335   -4.6443   -0.0817 H         1 <0>         0.1505
     32 H8          3.0273   -6.7565   -0.0785 H         1 <0>         0.1424
     33 H9          4.8546   -7.3333   -2.0992 H         1 <0>         0.1041
     34 H10         6.6372   -7.5221   -2.0273 H         1 <0>         0.1189
     35 H11         5.0512   -9.7332   -2.1257 H         1 <0>         0.1204
     36 H12         6.4776   -9.7134   -1.0353 H         1 <0>         0.1022
     37 H13         3.5451   -9.1231   -0.3532 H         1 <0>         0.1344
     38 H14         4.6934  -10.1864    0.5162 H         1 <0>         0.1410
     39 H15         5.6667   -8.4240    1.4942 H         1 <0>         0.4346
     40 H16         2.7583    4.0199   -0.0043 H         1 <0>         0.4046
     41 H17         4.4377    4.0661   -0.0210 H         1 <0>         0.4103
     42 H18         4.2246   -7.6728    1.2202 H         1 <0>         0.4294
@<TRIPOS>BOND
     1    1    6 ar
     2    1    2 ar
     3    1   27 1
     4    2    3 ar
     5    2   28 1
     6    3    4 ar
     7    3   24 1
     8    4    9 1
     9    4    5 ar
    10    5    6 ar
    11    5    7 1
    12    6   29 1
    13    7    8 2
    14    8    9 1
    15    8   11 1
    16    9   10 1
    17   11   16 ar
    18   11   12 ar
    19   12   13 ar
    20   12   30 1
    21   13   14 ar
    22   13   31 1
    23   14   15 ar
    24   14   18 1
    25   15   16 ar
    26   15   32 1
    27   16   17 1
    28   18   19 1
    29   18   23 1
    30   18   20 1
    31   20   21 1
    32   20   33 1
    33   20   34 1
    34   21   22 1
    35   21   35 1
    36   21   36 1
    37   22   23 1
    38   22   37 1
    39   22   38 1
    40   23   39 1
    41   23   42 1
    42   24   25 2
    43   24   26 am
    44   26   40 1
    45   26   41 1
@<TRIPOS>MOLECULE
ZINC49069484
   42    45     0     0     0
SMALL
USER_CHARGES

@<TRIPOS>ATOM
      1 C1         -0.0166    1.3741    0.0096 C.ar      1 <0>        -0.1357
      2 C2          1.1625    2.0972    0.0022 C.ar      1 <0>        -0.0439
      3 C3          2.3915    1.4385   -0.0135 C.ar      1 <0>        -0.1424
      4 C4          2.4242    0.0373   -0.0213 C.ar      1 <0>         0.1179
      5 C5          1.2211   -0.6891   -0.0132 C.ar      1 <0>         0.0349
      6 C6          0.0021   -0.0041    0.0020 C.ar      1 <0>        -0.0202
      7 N1          1.5485   -2.0050   -0.0242 N.2       1 <0>        -0.4465
      8 C7          2.8528   -2.1316   -0.0382 C.2       1 <0>         0.2898
      9 N2          3.4375   -0.8930   -0.0370 N.pl3     1 <0>        -0.5726
     10 H1          4.3894   -0.7064   -0.0459 H         1 <0>         0.4345
     11 C8          3.5828   -3.4170   -0.0531 C.ar      1 <0>        -0.0286
     12 C9          4.9784   -3.4308   -0.0612 C.ar      1 <0>        -0.0614
     13 C10         5.6536   -4.6333   -0.0751 C.ar      1 <0>        -0.0929
     14 C11         4.9515   -5.8261   -0.0812 C.ar      1 <0>        -0.0989
     15 C12         3.5690   -5.8222   -0.0733 C.ar      1 <0>        -0.1647
     16 C13         2.8787   -4.6243   -0.0535 C.ar      1 <0>         0.1659
     17 F1          1.5278   -4.6208   -0.0401 F         1 <0>        -0.0967
     18 C14         5.6976   -7.1353   -0.0969 C.3       1 <0>         0.0796
     19 H2          6.7212   -6.9839   -0.4396 H         1 <0>         0.1567
     20 C15         5.6902   -7.7772    1.3129 C.3       1 <0>        -0.1356
     21 C16         5.8975   -9.2772    0.9753 C.3       1 <0>        -0.1432
     22 C17         5.1155   -9.4479   -0.3441 C.3       1 <0>        -0.0109
     23 N3          5.0041   -8.1125   -0.9630 N.4       1 <0>        -0.5174
     24 C18         3.6483    2.2109   -0.0223 C.2       1 <0>         0.5700
     25 O1          4.7175    1.6322   -0.0360 O.2       1 <0>        -0.5569
     26 N4          3.6113    3.5582   -0.0152 N.am      1 <0>        -0.8431
     27 H3         -0.9624    1.8952    0.0260 H         1 <0>         0.1463
     28 H4          1.1312    3.1767    0.0083 H         1 <0>         0.1412
     29 H5         -0.9263   -0.5558    0.0082 H         1 <0>         0.1427
     30 H6          5.5286   -2.5015   -0.0568 H         1 <0>         0.1469
     31 H7          6.7335   -4.6443   -0.0817 H         1 <0>         0.1508
     32 H8          3.0273   -6.7565   -0.0785 H         1 <0>         0.1420
     33 H9          6.5118   -7.3964    1.9196 H         1 <0>         0.1227
     34 H10         4.7333   -7.6174    1.8097 H         1 <0>         0.1026
     35 H11         6.9550   -9.4965    0.8277 H         1 <0>         0.1032
     36 H12         5.4772   -9.9099    1.7571 H         1 <0>         0.1163
     37 H13         5.6555  -10.1201   -1.0109 H         1 <0>         0.1375
     38 H14         4.1221   -9.8462   -0.1375 H         1 <0>         0.1347
     39 H15         4.0314   -7.8590   -1.0499 H         1 <0>         0.4260
     40 H16         2.7583    4.0199   -0.0043 H         1 <0>         0.4046
     41 H17         4.4377    4.0661   -0.0210 H         1 <0>         0.4103
     42 H18         5.4341   -8.1224   -1.8758 H         1 <0>         0.4345
@<TRIPOS>BOND
     1    1    6 ar
     2    1    2 ar
     3    1   27 1
     4    2    3 ar
     5    2   28 1
     6    3    4 ar
     7    3   24 1
     8    4    9 1
     9    4    5 ar
    10    5    6 ar
    11    5    7 1
    12    6   29 1
    13    7    8 2
    14    8    9 1
    15    8   11 1
    16    9   10 1
    17   11   16 ar
    18   11   12 ar
    19   12   13 ar
    20   12   30 1
    21   13   14 ar
    22   13   31 1
    23   14   15 ar
    24   14   18 1
    25   15   16 ar
    26   15   32 1
    27   16   17 1
    28   18   19 1
    29   18   23 1
    30   18   20 1
    31   20   21 1
    32   20   33 1
    33   20   34 1
    34   21   22 1
    35   21   35 1
    36   21   36 1
    37   22   23 1
    38   22   37 1
    39   22   38 1
    40   23   39 1
    41   23   42 1
    42   24   25 2
    43   24   26 am
    44   26   40 1
    45   26   41 1
@<TRIPOS>MOLECULE
ZINC43206370
   45    48     0     0     0
SMALL
USER_CHARGES

@<TRIPOS>ATOM
      1 C1         -0.0168    1.3848    0.0097 C.ar      1 <0>        -0.1651
      2 C2          1.1177    2.1322    0.0028 C.ar      1 <0>        -0.0072
      3 C3          2.3826    1.5133   -0.0126 C.ar      1 <0>        -0.2024
      4 C4          3.6910    1.9652   -0.0227 C.2       1 <0>         0.0854
      5 N1          4.4959    0.8918   -0.0362 N.pl3     1 <0>        -0.2884
      6 N2          3.7292   -0.2794   -0.0351 N.2       1 <0>        -0.2654
      7 C5          2.4541    0.0429   -0.0212 C.ar      1 <0>         0.1465
      8 C6          1.1954   -0.7094   -0.0132 C.ar      1 <0>        -0.1276
      9 C7          0.0021   -0.0041    0.0020 C.ar      1 <0>        -0.0166
     10 C8          1.1989   -2.1810   -0.0217 C.2       1 <0>         0.5635
     11 O1          2.2538   -2.7866   -0.0355 O.2       1 <0>        -0.5282
     12 N3          0.0334   -2.8577   -0.0142 N.am      1 <0>        -0.8520
     13 C9          5.8958    0.9364   -0.0493 C.ar      1 <0>         0.1656
     14 C10         6.5530    2.1598   -0.0433 C.ar      1 <0>        -0.1303
     15 C11         7.9334    2.2005   -0.0563 C.ar      1 <0>        -0.0776
     16 C12         8.6611    1.0247   -0.0759 C.ar      1 <0>        -0.1078
     17 C13         8.0097   -0.1951   -0.0819 C.ar      1 <0>        -0.0887
     18 C14         6.6295   -0.2426   -0.0627 C.ar      1 <0>        -0.1020
     19 C15        10.1673    1.0728   -0.0911 C.3       1 <0>        -0.0584
     20 H1         10.4984    2.1113   -0.0840 H         1 <0>         0.1041
     21 C16        10.6884    0.3786   -1.3527 C.3       1 <0>        -0.1338
     22 C17        12.2194    0.3638   -1.3199 C.3       1 <0>        -0.1470
     23 C18        12.6900   -0.3300   -0.0398 C.3       1 <0>        -0.0095
     24 N4         12.1811    0.3960    1.1300 N.4       1 <0>        -0.5043
     25 C19        10.7140    0.3537    1.1441 C.3       1 <0>        -0.0066
     26 H2         -0.9709    1.8905    0.0261 H         1 <0>         0.1366
     27 H3          1.0489    3.2100    0.0089 H         1 <0>         0.1343
     28 H4          4.0075    2.9978   -0.0204 H         1 <0>         0.1929
     29 H5         -0.9323   -0.5457    0.0084 H         1 <0>         0.1380
     30 H6         -0.8078   -2.3748   -0.0032 H         1 <0>         0.4003
     31 H7          0.0357   -3.8277   -0.0198 H         1 <0>         0.4079
     32 H8          5.9852    3.0784   -0.0287 H         1 <0>         0.1397
     33 H9          8.4451    3.1515   -0.0516 H         1 <0>         0.1386
     34 H10         8.5808   -1.1116   -0.0975 H         1 <0>         0.1332
     35 H11         6.1213   -1.1955   -0.0629 H         1 <0>         0.1494
     36 H12        10.3146   -0.6448   -1.3863 H         1 <0>         0.0855
     37 H13        10.3479    0.9214   -2.2344 H         1 <0>         0.0972
     38 H14        12.5968   -0.1778   -2.1873 H         1 <0>         0.1147
     39 H15        12.5937    1.3873   -1.3379 H         1 <0>         0.0897
     40 H16        12.3154   -1.3534   -0.0230 H         1 <0>         0.1309
     41 H17        13.7796   -0.3424   -0.0134 H         1 <0>         0.1345
     42 H18        12.5370   -0.0323    1.9714 H         1 <0>         0.4334
     43 H19        10.3447    0.8461    2.0437 H         1 <0>         0.1364
     44 H20        10.3814   -0.6843    1.1365 H         1 <0>         0.1328
     45 H21        12.4879    1.3564    1.0882 H         1 <0>         0.4281
@<TRIPOS>BOND
     1    1    9 ar
     2    1    2 ar
     3    1   26 1
     4    2    3 ar
     5    2   27 1
     6    3    7 ar
     7    3    4 2
     8    4    5 1
     9    4   28 1
    10    5    6 1
    11    5   13 1
    12    6    7 2
    13    7    8 ar
    14    8    9 ar
    15    8   10 1
    16    9   29 1
    17   10   11 2
    18   10   12 am
    19   12   30 1
    20   12   31 1
    21   13   18 ar
    22   13   14 ar
    23   14   15 ar
    24   14   32 1
    25   15   16 ar
    26   15   33 1
    27   16   17 ar
    28   16   19 1
    29   17   18 ar
    30   17   34 1
    31   18   35 1
    32   19   20 1
    33   19   25 1
    34   19   21 1
    35   21   22 1
    36   21   36 1
    37   21   37 1
    38   22   23 1
    39   22   38 1
    40   22   39 1
    41   23   24 1
    42   23   40 1
    43   23   41 1
    44   24   25 1
    45   24   42 1
    46   24   45 1
    47   25   43 1
    48   25   44 1
@<TRIPOS>MOLECULE
ZINC34031449
   44    46     0     0     0
SMALL
USER_CHARGES
2-(1-propyl-4-piperidyl)-1H-benzimidazole-4-carboxamide
@<TRIPOS>ATOM
      1 C1         -2.8413    1.0248    4.9885 C.3       1 <0>        -0.1589
      2 C2         -2.1338    0.6721    3.6786 C.3       1 <0>        -0.1509
      3 C3         -2.7943    1.4266    2.5230 C.3       1 <0>        -0.0082
      4 N1         -2.1150    1.0879    1.2653 N.4       1 <0>        -0.4004
      5 C4         -0.7306    1.5801    1.2659 C.3       1 <0>        -0.0062
      6 C5         -0.0127    1.0858    0.0080 C.3       1 <0>        -0.1393
      7 C6         -0.7548    1.5938   -1.2312 C.3       1 <0>        -0.0167
      8 C7         -2.2060    1.1076   -1.1825 C.3       1 <0>        -0.1464
      9 C8         -2.8612    1.6013    0.1094 C.3       1 <0>        -0.0001
     10 C9         -0.0856    1.0620   -2.4723 C.2       1 <0>         0.2547
     11 N2         -0.3279   -0.1538   -3.0280 N.pl3     1 <0>        -0.6071
     12 H1         -1.0599   -0.8332   -2.5670 H         1 <0>         0.4440
     13 C10         0.4779   -0.2589   -4.1453 C.ar      1 <0>         0.0578
     14 C11         0.6739   -1.2431   -5.1033 C.ar      1 <0>        -0.0875
     15 C12         1.5828   -1.0466   -6.1246 C.ar      1 <0>        -0.1017
     16 C13         2.3073    0.1283   -6.2071 C.ar      1 <0>        -0.0862
     17 C14         2.1303    1.1322   -5.2586 C.ar      1 <0>        -0.0808
     18 C15         1.2044    0.9414   -4.2113 C.ar      1 <0>         0.0946
     19 N3          0.8146    1.6984   -3.1668 N.2       1 <0>        -0.4510
     20 C16         2.9036    2.3840   -5.3481 C.2       1 <0>         0.5574
     21 O1          2.7447    3.2576   -4.5172 O.2       1 <0>        -0.5240
     22 N4          3.7866    2.5604   -6.3509 N.am      1 <0>        -0.8748
     23 H2         -2.3664    0.4823    5.8193 H         1 <0>         0.0778
     24 H3         -3.9011    0.7380    4.9215 H         1 <0>         0.0675
     25 H4         -2.7650    2.1076    5.1664 H         1 <0>         0.0675
     26 H5         -1.0740    0.9589    3.7456 H         1 <0>         0.0861
     27 H6         -2.2101   -0.4107    3.5007 H         1 <0>         0.0860
     28 H7         -3.8541    1.1398    2.4561 H         1 <0>         0.1318
     29 H8         -2.7180    2.5094    2.7009 H         1 <0>         0.1286
     30 H9         -0.7325    2.6800    1.2786 H         1 <0>         0.1327
     31 H10        -0.2081    1.2041    2.1579 H         1 <0>         0.1376
     32 H11         1.0192    1.4668    0.0011 H         1 <0>         0.1233
     33 H12         0.0026   -0.0141    0.0028 H         1 <0>         0.0896
     34 H13        -0.7261    2.6929   -1.2649 H         1 <0>         0.1266
     35 H14        -2.7550    1.5047   -2.0491 H         1 <0>         0.1218
     36 H15        -2.2254    0.0081   -1.2086 H         1 <0>         0.0869
     37 H16        -3.8997    1.2413    0.1541 H         1 <0>         0.1371
     38 H17        -2.8533    2.7011    0.1269 H         1 <0>         0.1330
     39 H18         0.1144   -2.1654   -5.0504 H         1 <0>         0.1307
     40 H19         1.7287   -1.8180   -6.8662 H         1 <0>         0.1433
     41 H20         3.0145    0.2678   -7.0114 H         1 <0>         0.1390
     42 H21         4.3636    3.4945   -6.4177 H         1 <0>         0.4295
     43 H22         3.9302    1.7703   -7.1026 H         1 <0>         0.4171
     44 H23        -2.0815   -0.0084    1.1818 H         1 <0>         0.4386
@<TRIPOS>BOND
     1    1    2 1
     2    1   23 1
     3    1   24 1
     4    1   25 1
     5    2    3 1
     6    2   26 1
     7    2   27 1
     8    3    4 1
     9    3   28 1
    10    3   29 1
    11    4    9 1
    12    4    5 1
    13    4   44 1
    14    5    6 1
    15    5   30 1
    16    5   31 1
    17    6    7 1
    18    6   32 1
    19    6   33 1
    20    7    8 1
    21    7   10 1
    22    7   34 1
    23    8    9 1
    24    8   35 1
    25    8   36 1
    26    9   37 1
    27    9   38 1
    28   10   19 2
    29   10   11 1
    30   11   12 1
    31   11   13 1
    32   13   18 ar
    33   13   14 ar
    34   14   15 ar
    35   14   39 1
    36   15   16 ar
    37   15   40 1
    38   16   17 ar
    39   16   41 1
    40   17   18 ar
    41   17   20 1
    42   18   19 1
    43   20   21 2
    44   20   22 am
    45   22   42 1
    46   22   43 1
@<TRIPOS>MOLECULE
ZINC36470974
   35    37     0     0     0
SMALL
USER_CHARGES

@<TRIPOS>ATOM
      1 C1         -0.0187    1.5258    0.0104 C.3       1 <0>        -0.1783
      2 C2          0.0021   -0.0041    0.0020 C.3       1 <0>         0.1520
      3 C3          0.7713   -0.5119   -1.2357 C.3       1 <0>        -0.1372
      4 C4          2.1906   -0.7909   -0.6748 C.3       1 <0>        -0.1393
      5 C5          1.8681   -1.3116    0.7480 C.3       1 <0>        -0.0076
      6 N1          0.7135   -0.5026    1.1934 N.4       1 <0>        -0.5054
      7 C6         -1.4080   -0.5356   -0.0129 C.2       1 <0>         0.2351
      8 N2         -2.3292   -0.2770   -0.9810 N.pl3     1 <0>        -0.5562
      9 H1         -2.1956    0.2729   -1.7688 H         1 <0>         0.4407
     10 C7         -3.4842   -0.9390   -0.6364 C.ar      1 <0>         0.1189
     11 C8         -4.7528   -1.0558   -1.2215 C.ar      1 <0>        -0.1362
     12 C9         -5.7296   -1.8276   -0.5944 C.ar      1 <0>        -0.0391
     13 C10        -5.4501   -2.4737    0.5964 C.ar      1 <0>        -0.1263
     14 C11        -4.2065   -2.3658    1.1811 C.ar      1 <0>        -0.0245
     15 C12        -3.2100   -1.5986    0.5724 C.ar      1 <0>         0.0423
     16 N3         -1.9214   -1.3134    0.8947 N.2       1 <0>        -0.4891
     17 C13        -5.0519   -0.3667   -2.4912 C.2       1 <0>         0.5682
     18 O1         -4.1966    0.3057   -3.0342 O.2       1 <0>        -0.5547
     19 N4         -6.2732   -0.4824   -3.0493 N.am      1 <0>        -0.8403
     20 H2          1.0039    1.9031    0.0027 H         1 <0>         0.1032
     21 H3         -0.5459    1.8868   -0.8726 H         1 <0>         0.1074
     22 H4         -0.5289    1.8773    0.9072 H         1 <0>         0.0922
     23 H5          0.3218   -1.4276   -1.6198 H         1 <0>         0.1049
     24 H6          0.8065    0.2554   -2.0091 H         1 <0>         0.1235
     25 H7          2.7001   -1.5537   -1.2636 H         1 <0>         0.1234
     26 H8          2.7802    0.1249   -0.6312 H         1 <0>         0.1053
     27 H9          1.6009   -2.3678    0.7140 H         1 <0>         0.1367
     28 H10         2.7190   -1.1557    1.4111 H         1 <0>         0.1447
     29 H11         1.0379    0.2767    1.7460 H         1 <0>         0.4330
     30 H12        -6.7090   -1.9213   -1.0399 H         1 <0>         0.1453
     31 H13        -6.2146   -3.0690    1.0733 H         1 <0>         0.1504
     32 H14        -4.0022   -2.8750    2.1114 H         1 <0>         0.1449
     33 H15        -6.9555   -1.0188   -2.6162 H         1 <0>         0.4054
     34 H16        -6.4699   -0.0294   -3.8841 H         1 <0>         0.4130
     35 H17         0.0917   -1.0737    1.7459 H         1 <0>         0.4438
@<TRIPOS>BOND
     1    1    2 1
     2    1   20 1
     3    1   21 1
     4    1   22 1
     5    2    6 1
     6    2    3 1
     7    2    7 1
     8    3    4 1
     9    3   23 1
    10    3   24 1
    11    4    5 1
    12    4   25 1
    13    4   26 1
    14    5    6 1
    15    5   27 1
    16    5   28 1
    17    6   29 1
    18    6   35 1
    19    7   16 2
    20    7    8 1
    21    8    9 1
    22    8   10 1
    23   10   15 ar
    24   10   11 ar
    25   11   12 ar
    26   11   17 1
    27   12   13 ar
    28   12   30 1
    29   13   14 ar
    30   13   31 1
    31   14   15 ar
    32   14   32 1
    33   15   16 1
    34   17   18 2
    35   17   19 am
    36   19   33 1
    37   19   34 1
@<TRIPOS>MOLECULE
ZINC35384958
   35    37     0     0     0
SMALL
USER_CHARGES

@<TRIPOS>ATOM
      1 C1         -0.0187    1.5258    0.0104 C.3       1 <0>        -0.1756
      2 C2          0.0021   -0.0041    0.0020 C.3       1 <0>         0.1550
      3 C3         -1.4366   -0.5486    0.0737 C.3       1 <0>        -0.1378
      4 C4         -1.4976   -1.3558    1.3908 C.3       1 <0>        -0.1434
      5 C5         -0.3327   -0.7569    2.2185 C.3       1 <0>        -0.0035
      6 N1          0.7156   -0.5049    1.1968 N.4       1 <0>        -0.5066
      7 C6          0.6818   -0.5012   -1.2477 C.2       1 <0>         0.2336
      8 N2          0.2788   -0.2262   -2.5157 N.pl3     1 <0>        -0.5720
      9 H1         -0.4837    0.3154   -2.7731 H         1 <0>         0.4323
     10 C7          1.1589   -0.8623   -3.3698 C.ar      1 <0>         0.0565
     11 C8          1.2674   -0.9528   -4.7501 C.ar      1 <0>        -0.0800
     12 C9          2.2891   -1.6871   -5.3194 C.ar      1 <0>        -0.0908
     13 C10         3.2150   -2.3397   -4.5263 C.ar      1 <0>        -0.0755
     14 C11         3.1297   -2.2651   -3.1385 C.ar      1 <0>        -0.0837
     15 C12         2.0894   -1.5178   -2.5469 C.ar      1 <0>         0.1023
     16 N3          1.7456   -1.2531   -1.2710 N.2       1 <0>        -0.4644
     17 C13         4.1178   -2.9609   -2.2946 C.2       1 <0>         0.5622
     18 O1          4.0385   -2.8924   -1.0831 O.2       1 <0>        -0.5248
     19 N4          5.1093   -3.6732   -2.8658 N.am      1 <0>        -0.8479
     20 H2          1.0039    1.9031    0.0027 H         1 <0>         0.0917
     21 H3         -0.5459    1.8868   -0.8726 H         1 <0>         0.1056
     22 H4         -0.5289    1.8773    0.9072 H         1 <0>         0.1016
     23 H5         -2.1515    0.2737    0.1005 H         1 <0>         0.1189
     24 H6         -1.6380   -1.1985   -0.7779 H         1 <0>         0.1059
     25 H7         -2.4505   -1.1982    1.8960 H         1 <0>         0.1238
     26 H8         -1.3309   -2.4162    1.2014 H         1 <0>         0.1018
     27 H9         -0.6382    0.1750    2.6943 H         1 <0>         0.1401
     28 H10         0.0187   -1.4725    2.9618 H         1 <0>         0.1454
     29 H11         1.2015   -1.3617    0.9782 H         1 <0>         0.4463
     30 H12         0.5507   -0.4479   -5.3808 H         1 <0>         0.1394
     31 H13         2.3654   -1.7527   -6.3947 H         1 <0>         0.1505
     32 H14         4.0084   -2.9106   -4.9858 H         1 <0>         0.1444
     33 H15         5.1726   -3.7279   -3.8322 H         1 <0>         0.4025
     34 H16         5.7595   -4.1311   -2.3105 H         1 <0>         0.4107
     35 H17         1.3664    0.1904    1.5303 H         1 <0>         0.4352
@<TRIPOS>BOND
     1    1    2 1
     2    1   20 1
     3    1   21 1
     4    1   22 1
     5    2    6 1
     6    2    3 1
     7    2    7 1
     8    3    4 1
     9    3   23 1
    10    3   24 1
    11    4    5 1
    12    4   25 1
    13    4   26 1
    14    5    6 1
    15    5   27 1
    16    5   28 1
    17    6   29 1
    18    6   35 1
    19    7   16 2
    20    7    8 1
    21    8    9 1
    22    8   10 1
    23   10   15 ar
    24   10   11 ar
    25   11   12 ar
    26   11   30 1
    27   12   13 ar
    28   12   31 1
    29   13   14 ar
    30   13   32 1
    31   14   15 ar
    32   14   17 1
    33   15   16 1
    34   17   18 2
    35   17   19 am
    36   19   33 1
    37   19   34 1
@<TRIPOS>MOLECULE
ZINC40430143
   55    59     0     0     0
SMALL
USER_CHARGES

@<TRIPOS>ATOM
      1 C1         -0.0518    1.3844    0.1044 C.ar      1 <0>        -0.0871
      2 C2          1.1250    2.1221    0.1174 C.ar      1 <0>        -0.1100
      3 C3          2.3501    1.4921    0.1057 C.ar      1 <0>        -0.0544
      4 C4          2.4031    0.0991    0.0811 C.ar      1 <0>        -0.1253
      5 C5          1.2031   -0.6481    0.0685 C.ar      1 <0>        -0.0605
      6 C6         -0.0239    0.0180    0.0803 C.ar      1 <0>        -0.0976
      7 C7          1.2888   -2.1083    0.0421 C.2       1 <0>         0.1363
      8 N1          2.4504   -2.6913    0.0313 N.2       1 <0>        -0.2208
      9 N2          3.6506   -1.9802    0.0434 N.am      1 <0>        -0.5331
     10 H1          4.4888   -2.4684    0.0344 H         1 <0>         0.4373
     11 C8          3.6765   -0.6313    0.0672 C.2       1 <0>         0.5284
     12 O1          4.7364   -0.0310    0.0769 O.2       1 <0>        -0.5196
     13 C9          0.0300   -2.9367    0.0281 C.3       1 <0>        -0.0170
     14 C10         0.3915   -4.3995    0.0015 C.ar      1 <0>        -0.0901
     15 C11         0.5618   -5.0463   -1.2108 C.ar      1 <0>        -0.0510
     16 C12         0.8934   -6.3874   -1.2460 C.ar      1 <0>        -0.1523
     17 C13         1.0578   -7.0929   -0.0676 C.ar      1 <0>         0.1488
     18 C14         0.8874   -6.4446    1.1595 C.ar      1 <0>        -0.1630
     19 C15         0.5571   -5.0878    1.1844 C.ar      1 <0>        -0.0461
     20 C16         1.0605   -7.1896    2.4229 C.2       1 <0>         0.5673
     21 O2          2.0858   -7.8101    2.6271 O.2       1 <0>        -0.5171
     22 N3          0.0817   -7.1817    3.3493 N.am      1 <0>        -0.6081
     23 C17        -1.2136   -6.5487    3.0637 C.3       1 <0>         0.0905
     24 C18        -2.3250   -7.5792    3.2984 C.3       1 <0>         0.0968
     25 N4         -2.1164   -8.2038    4.6122 N.am      1 <0>        -0.6116
     26 C19        -0.8212   -8.8368    4.8979 C.3       1 <0>         0.0933
     27 C20         0.2883   -7.8113    4.6611 C.3       1 <0>         0.0961
     28 C21        -3.0952   -8.1959    5.5387 C.2       1 <0>         0.5483
     29 O3         -4.1598   -7.6701    5.2916 O.2       1 <0>        -0.5362
     30 C22        -2.8668   -8.8405    6.8816 C.3       1 <0>        -0.2013
     31 C23        -3.6546  -10.1136    7.1973 C.3       1 <0>        -0.1501
     32 C24        -4.0166   -8.7983    7.8901 C.3       1 <0>        -0.1455
     33 F1          1.3815   -8.4041   -0.1021 F         1 <0>        -0.1247
     34 H2         -1.0021    1.8974    0.1181 H         1 <0>         0.1370
     35 H3          1.0791    3.2009    0.1364 H         1 <0>         0.1377
     36 H4          3.2612    2.0720    0.1152 H         1 <0>         0.1436
     37 H5         -0.9463   -0.5436    0.0702 H         1 <0>         0.1422
     38 H6         -0.5554   -2.7233    0.9224 H         1 <0>         0.1095
     39 H7         -0.5566   -2.6913   -0.8573 H         1 <0>         0.1119
     40 H8          0.4346   -4.4999   -2.1337 H         1 <0>         0.1383
     41 H9          1.0240   -6.8857   -2.1953 H         1 <0>         0.1446
     42 H10         0.4276   -4.5798    2.1286 H         1 <0>         0.1358
     43 H11        -1.3586   -5.6965    3.7277 H         1 <0>         0.0794
     44 H12        -1.2369   -6.2154    2.0262 H         1 <0>         0.1021
     45 H13        -3.2948   -7.0819    3.2796 H         1 <0>         0.1086
     46 H14        -2.2870   -8.3418    2.5206 H         1 <0>         0.0745
     47 H15        -0.7979   -9.1702    5.9354 H         1 <0>         0.1036
     48 H16        -0.6762   -9.6890    4.2339 H         1 <0>         0.0784
     49 H17         1.2565   -8.3116    4.6783 H         1 <0>         0.1090
     50 H18         0.2526   -7.0511    5.4414 H         1 <0>         0.0770
     51 H19        -1.8519   -8.7664    7.2721 H         1 <0>         0.1261
     52 H20        -4.3380  -10.4849    6.4337 H         1 <0>         0.0998
     53 H21        -3.1578  -10.8774    7.7955 H         1 <0>         0.1066
     54 H22        -3.7581   -8.6969    8.9442 H         1 <0>         0.1051
     55 H23        -4.9382   -8.3044    7.5823 H         1 <0>         0.1086
@<TRIPOS>BOND
     1    1    6 ar
     2    1    2 ar
     3    1   34 1
     4    2    3 ar
     5    2   35 1
     6    3    4 ar
     7    3   36 1
     8    4   11 1
     9    4    5 ar
    10    5    6 ar
    11    5    7 1
    12    6   37 1
    13    7    8 2
    14    7   13 1
    15    8    9 1
    16    9   10 1
    17    9   11 am
    18   11   12 2
    19   13   14 1
    20   13   38 1
    21   13   39 1
    22   14   19 ar
    23   14   15 ar
    24   15   16 ar
    25   15   40 1
    26   16   17 ar
    27   16   41 1
    28   17   18 ar
    29   17   33 1
    30   18   19 ar
    31   18   20 1
    32   19   42 1
    33   20   21 2
    34   20   22 am
    35   22   27 1
    36   22   23 1
    37   23   24 1
    38   23   43 1
    39   23   44 1
    40   24   25 1
    41   24   45 1
    42   24   46 1
    43   25   26 1
    44   25   28 am
    45   26   27 1
    46   26   47 1
    47   26   48 1
    48   27   49 1
    49   27   50 1
    50   28   29 2
    51   28   30 1
    52   30   32 1
    53   30   31 1
    54   30   51 1
    55   31   32 1
    56   31   52 1
    57   31   53 1
    58   32   54 1
    59   32   55 1
@<TRIPOS>MOLECULE
ZINC45291807
   38    41     0     0     0
SMALL
USER_CHARGES

@<TRIPOS>ATOM
      1 C1         -0.0167    1.3798    0.0096 C.ar      1 <0>        -0.0716
      2 C2          1.1937    2.0588    0.0017 C.ar      1 <0>        -0.1721
      3 C3          2.3747    1.3397   -0.0134 C.ar      1 <0>         0.1053
      4 N1          2.3646    0.0224   -0.0204 N.ar      1 <0>        -0.4776
      5 C4          1.2294   -0.6645   -0.0132 C.ar      1 <0>         0.1615
      6 C5          0.0021   -0.0041    0.0020 C.ar      1 <0>        -0.1596
      7 C6          1.2667   -2.1466   -0.0221 C.ar      1 <0>        -0.0311
      8 C7          0.0763   -2.8739   -0.0204 C.ar      1 <0>        -0.1005
      9 C8          0.1099   -4.2504   -0.0285 C.ar      1 <0>        -0.0659
     10 C9          1.3365   -4.9184   -0.0385 C.ar      1 <0>        -0.0240
     11 C10         2.5279   -4.1894   -0.0402 C.ar      1 <0>        -0.1045
     12 C11         2.4922   -2.8130   -0.0378 C.ar      1 <0>        -0.0790
     13 C12         1.3737   -6.3957   -0.0468 C.2       1 <0>         0.3294
     14 N2          2.5114   -7.1548   -0.0514 N.pl3     1 <0>        -0.5926
     15 H1          3.4240   -6.8261   -0.0501 H         1 <0>         0.4257
     16 C13         2.1148   -8.4786   -0.0582 C.ar      1 <0>         0.0405
     17 C14         2.7977   -9.6859   -0.0645 C.ar      1 <0>        -0.0789
     18 C15         2.1006  -10.8786   -0.0705 C.ar      1 <0>        -0.1127
     19 C16         0.7180  -10.8876   -0.0699 C.ar      1 <0>        -0.0853
     20 C17         0.0063   -9.6907   -0.0637 C.ar      1 <0>        -0.0905
     21 C18         0.7087   -8.4653   -0.0575 C.ar      1 <0>         0.1059
     22 N3          0.3198   -7.1784   -0.0452 N.2       1 <0>        -0.4527
     23 C19        -1.4673   -9.7024   -0.0641 C.2       1 <0>         0.5579
     24 O1         -2.0837   -8.6541   -0.0586 O.2       1 <0>        -0.5112
     25 N4         -2.1318  -10.8749   -0.0705 N.am      1 <0>        -0.8552
     26 H2         -0.9522    1.9191    0.0259 H         1 <0>         0.1387
     27 H3          1.2130    3.1386    0.0070 H         1 <0>         0.1378
     28 H4          3.3182    1.8652   -0.0200 H         1 <0>         0.1599
     29 H5         -0.9212   -0.5643    0.0082 H         1 <0>         0.1400
     30 H6         -0.8720   -2.3572   -0.0123 H         1 <0>         0.1366
     31 H7         -0.8118   -4.8133   -0.0269 H         1 <0>         0.1478
     32 H8          3.4768   -4.7051   -0.0476 H         1 <0>         0.1245
     33 H9          3.4133   -2.2491   -0.0439 H         1 <0>         0.1429
     34 H10         3.8777   -9.6935   -0.0650 H         1 <0>         0.1306
     35 H11         2.6412  -11.8136   -0.0761 H         1 <0>         0.1402
     36 H12         0.1870  -11.8281   -0.0747 H         1 <0>         0.1357
     37 H13        -1.6402  -11.7111   -0.0748 H         1 <0>         0.3985
     38 H14        -3.1018  -10.8826   -0.0707 H         1 <0>         0.4054
@<TRIPOS>BOND
     1    1    6 ar
     2    1    2 ar
     3    1   26 1
     4    2    3 ar
     5    2   27 1
     6    3    4 ar
     7    3   28 1
     8    4    5 ar
     9    5    6 ar
    10    5    7 1
    11    6   29 1
    12    7   12 ar
    13    7    8 ar
    14    8    9 ar
    15    8   30 1
    16    9   10 ar
    17    9   31 1
    18   10   11 ar
    19   10   13 1
    20   11   12 ar
    21   11   32 1
    22   12   33 1
    23   13   22 2
    24   13   14 1
    25   14   15 1
    26   14   16 1
    27   16   21 ar
    28   16   17 ar
    29   17   18 ar
    30   17   34 1
    31   18   19 ar
    32   18   35 1
    33   19   20 ar
    34   19   36 1
    35   20   21 ar
    36   20   23 1
    37   21   22 1
    38   23   24 2
    39   23   25 am
    40   25   37 1
    41   25   38 1
