@<TRIPOS>MOLECULE
ZINC00509842
   40    43     0     0     0
SMALL
USER_CHARGES
N-benzyl-2-(4-pyridyl)quinazolin-4-amine
@<TRIPOS>ATOM
      1 C1         -2.1273    8.3398    0.0767 C.ar      1 <0>        -0.1081
      2 C2         -2.2311    7.6605   -1.1227 C.ar      1 <0>        -0.1215
      3 C3         -2.4041    6.2890   -1.1275 C.ar      1 <0>        -0.0986
      4 C4         -2.4737    5.5969    0.0671 C.ar      1 <0>        -0.1174
      5 C5         -2.3756    6.2770    1.2666 C.ar      1 <0>        -0.0986
      6 C6         -2.1969    7.6477    1.2713 C.ar      1 <0>        -0.1215
      7 C7         -2.6628    4.1018    0.0619 C.3       1 <0>         0.1690
      8 N1         -1.3539    3.4442    0.0397 N.pl3     1 <0>        -0.6908
      9 C8         -1.2741    2.0677    0.0312 C.ar      1 <0>         0.4801
     10 C9         -0.0171    1.4126    0.0098 C.ar      1 <0>        -0.1965
     11 C10         1.1886    2.1215    0.0021 C.ar      1 <0>        -0.0699
     12 C11         2.3698    1.4391   -0.0133 C.ar      1 <0>        -0.1313
     13 C12         2.3914    0.0472   -0.0206 C.ar      1 <0>        -0.0726
     14 C13         1.2343   -0.6734   -0.0134 C.ar      1 <0>        -0.1084
     15 C14         0.0021   -0.0041    0.0020 C.ar      1 <0>         0.1914
     16 N2         -1.1630   -0.6654    0.0101 N.ar      1 <0>        -0.5382
     17 C15        -2.3055   -0.0060    0.0250 C.ar      1 <0>         0.4079
     18 N3         -2.3698    1.3238    0.0332 N.ar      1 <0>        -0.5851
     19 C16        -3.5722   -0.7789    0.0334 C.ar      1 <0>         0.0006
     20 C17        -4.8093   -0.1293    0.0551 C.ar      1 <0>        -0.1249
     21 C18        -5.9635   -0.8868    0.0566 C.ar      1 <0>         0.0902
     22 N4         -5.9084   -2.2044    0.0490 N.ar      1 <0>        -0.4746
     23 C19        -4.7620   -2.8561    0.0341 C.ar      1 <0>         0.0913
     24 C20        -3.5605   -2.1763    0.0258 C.ar      1 <0>        -0.1242
     25 H1         -1.9914    9.4112    0.0805 H         1 <0>         0.1250
     26 H2         -2.1767    8.2012   -2.0560 H         1 <0>         0.1257
     27 H3         -2.4852    5.7582   -2.0646 H         1 <0>         0.1243
     28 H4         -2.4344    5.7368    2.2000 H         1 <0>         0.1243
     29 H5         -2.1154    8.1784    2.2084 H         1 <0>         0.1257
     30 H6         -3.2308    3.8105   -0.8217 H         1 <0>         0.0815
     31 H7         -3.2054    3.8011    0.9581 H         1 <0>         0.0813
     32 H8         -0.5435    3.9771    0.0309 H         1 <0>         0.4135
     33 H9          1.1846    3.2014    0.0076 H         1 <0>         0.1254
     34 H10         3.3009    1.9862   -0.0200 H         1 <0>         0.1315
     35 H11         3.3396   -0.4698   -0.0324 H         1 <0>         0.1349
     36 H12         1.2663   -1.7529   -0.0198 H         1 <0>         0.1413
     37 H13        -4.8618    0.9494    0.0664 H         1 <0>         0.1467
     38 H14        -6.9243   -0.3938    0.0691 H         1 <0>         0.1605
     39 H15        -4.7632   -3.9361    0.0287 H         1 <0>         0.1613
     40 H16        -2.6254   -2.7165    0.0133 H         1 <0>         0.1487
@<TRIPOS>BOND
     1    1    6 ar
     2    1    2 ar
     3    1   25 1
     4    2    3 ar
     5    2   26 1
     6    3    4 ar
     7    3   27 1
     8    4    5 ar
     9    4    7 1
    10    5    6 ar
    11    5   28 1
    12    6   29 1
    13    7    8 1
    14    7   30 1
    15    7   31 1
    16    8    9 1
    17    8   32 1
    18    9   18 ar
    19    9   10 ar
    20   10   15 ar
    21   10   11 ar
    22   11   12 ar
    23   11   33 1
    24   12   13 ar
    25   12   34 1
    26   13   14 ar
    27   13   35 1
    28   14   15 ar
    29   14   36 1
    30   15   16 ar
    31   16   17 ar
    32   17   18 ar
    33   17   19 1
    34   19   24 ar
    35   19   20 ar
    36   20   21 ar
    37   20   37 1
    38   21   22 ar
    39   21   38 1
    40   22   23 ar
    41   23   24 ar
    42   23   39 1
    43   24   40 1
@<TRIPOS>MOLECULE
ZINC18324776
   66    69     0     0     0
SMALL
USER_CHARGES

@<TRIPOS>ATOM
      1 C1         -0.0187    1.5258    0.0104 C.3       1 <0>        -0.1515
      2 C2          0.0021   -0.0041    0.0020 C.3       1 <0>        -0.1161
      3 C3          0.7182   -0.4975   -1.2568 C.3       1 <0>        -0.0382
      4 C4          0.7386   -2.0043   -1.2651 C.2       1 <0>         0.2940
      5 N1          1.6787   -2.7529   -0.7375 N.2       1 <0>        -0.4766
      6 C5          1.3866   -4.0413   -0.9211 C.2       1 <0>         0.1350
      7 C6          0.1960   -4.0985   -1.6021 C.2       1 <0>        -0.1676
      8 N2         -0.2036   -2.7889   -1.8075 N.pl3     1 <0>        -0.2813
      9 N3         -1.4027   -2.5429   -2.4823 N.2       1 <0>        -0.2666
     10 C7         -2.1451   -3.5211   -2.9147 C.2       1 <0>         0.4182
     11 N4         -1.8014   -4.8460   -2.7370 N.am      1 <0>        -0.6707
     12 H1         -2.3837   -5.5441   -3.0753 H         1 <0>         0.4225
     13 C8         -0.6544   -5.1776   -2.1025 C.2       1 <0>         0.6004
     14 O1         -0.3442   -6.3438   -1.9407 O.2       1 <0>        -0.4846
     15 C9         -3.4025   -3.2011   -3.6216 C.ar      1 <0>        -0.1222
     16 C10        -4.2233   -4.2270   -4.0923 C.ar      1 <0>         0.0523
     17 C11        -5.3956   -3.9221   -4.7514 C.ar      1 <0>        -0.7181
     18 C12        -5.7625   -2.6016   -4.9484 C.ar      1 <0>         0.0502
     19 C13        -4.9584   -1.5773   -4.4871 C.ar      1 <0>        -0.2291
     20 C14        -3.7798   -1.8669   -3.8177 C.ar      1 <0>         0.2417
     21 O2         -2.9915   -0.8612   -3.3589 O.3       1 <0>        -0.2691
     22 C15        -3.4407    0.4746   -3.5956 C.3       1 <0>         0.0430
     23 C16        -2.4300    1.4636   -3.0113 C.3       1 <0>        -0.1534
     24 S1         -6.4307   -5.2183   -5.3457 S.o2      1 <0>         2.6925
     25 O3         -7.1994   -4.6697   -6.4075 O.2       1 <0>        -0.9459
     26 O4         -5.5978   -6.3568   -5.5173 O.2       1 <0>        -0.9478
     27 N5         -7.4957   -5.5895   -4.1331 N.pl3     1 <0>        -0.9969
     28 C17        -7.1670   -6.6094   -3.1256 C.3       1 <0>         0.1241
     29 C18        -7.3951   -6.0101   -1.7339 C.3       1 <0>         0.0390
     30 N6         -8.7605   -5.4743   -1.6528 N.3       1 <0>        -0.5346
     31 C19        -8.9594   -4.3757   -2.6075 C.3       1 <0>         0.0359
     32 C20        -8.7928   -4.9036   -4.0315 C.3       1 <0>         0.1244
     33 C21        -9.0775   -5.0460   -0.2838 C.3       1 <0>         0.0507
     34 C22       -10.5711   -4.7305   -0.1811 C.3       1 <0>        -0.1507
     35 C23         2.2115   -5.2172   -0.4653 C.3       1 <0>        -0.0791
     36 H2          1.0039    1.9031    0.0027 H         1 <0>         0.0592
     37 H3         -0.5459    1.8868   -0.8726 H         1 <0>         0.0568
     38 H4         -0.5289    1.8773    0.9072 H         1 <0>         0.0582
     39 H5          0.5293   -0.3651    0.8851 H         1 <0>         0.0698
     40 H6         -1.0205   -0.3814    0.0098 H         1 <0>         0.0616
     41 H7          0.1910   -0.1364   -2.1398 H         1 <0>         0.0903
     42 H8          1.7408   -0.1202   -1.2645 H         1 <0>         0.1010
     43 H9         -3.9405   -5.2583   -3.9410 H         1 <0>         0.1476
     44 H10        -6.6820   -2.3711   -5.4658 H         1 <0>         0.1528
     45 H11        -5.2508   -0.5496   -4.6443 H         1 <0>         0.1519
     46 H12        -3.5339    0.6418   -4.6687 H         1 <0>         0.0707
     47 H13        -4.4100    0.6217   -3.1194 H         1 <0>         0.0698
     48 H14        -2.3368    1.2964   -1.9383 H         1 <0>         0.0715
     49 H15        -1.4607    1.3165   -3.4876 H         1 <0>         0.0696
     50 H16        -2.7726    2.4825   -3.1919 H         1 <0>         0.0831
     51 H17        -7.8113   -7.4781   -3.2603 H         1 <0>         0.0891
     52 H18        -6.1229   -6.9045   -3.2305 H         1 <0>         0.0932
     53 H19        -7.2628   -6.7844   -0.9782 H         1 <0>         0.0906
     54 H20        -6.6785   -5.2070   -1.5617 H         1 <0>         0.0379
     55 H21        -9.9616   -3.9647   -2.4854 H         1 <0>         0.0938
     56 H22        -8.2210   -3.5954   -2.4231 H         1 <0>         0.0379
     57 H23        -8.8232   -4.0716   -4.7350 H         1 <0>         0.0943
     58 H24        -9.5965   -5.6053   -4.2549 H         1 <0>         0.0876
     59 H25        -8.8260   -5.8445    0.4142 H         1 <0>         0.0769
     60 H26        -8.5002   -4.1544   -0.0392 H         1 <0>         0.0325
     61 H27       -10.8226   -3.9319   -0.8791 H         1 <0>         0.0550
     62 H28       -11.1485   -5.6221   -0.4257 H         1 <0>         0.0654
     63 H29       -10.8063   -4.4127    0.8346 H         1 <0>         0.0603
     64 H30         1.9006   -5.5126    0.5368 H         1 <0>         0.0820
     65 H31         2.0655   -6.0513   -1.1517 H         1 <0>         0.0840
     66 H32         3.2651   -4.9383   -0.4514 H         1 <0>         0.0816
@<TRIPOS>BOND
     1    1    2 1
     2    1   36 1
     3    1   37 1
     4    1   38 1
     5    2    3 1
     6    2   39 1
     7    2   40 1
     8    3    4 1
     9    3   41 1
    10    3   42 1
    11    4    8 1
    12    4    5 2
    13    5    6 1
    14    6    7 2
    15    6   35 1
    16    7   13 1
    17    7    8 1
    18    8    9 1
    19    9   10 2
    20   10   11 1
    21   10   15 1
    22   11   12 1
    23   11   13 am
    24   13   14 2
    25   15   20 ar
    26   15   16 ar
    27   16   17 ar
    28   16   43 1
    29   17   18 ar
    30   17   24 1
    31   18   19 ar
    32   18   44 1
    33   19   20 ar
    34   19   45 1
    35   20   21 1
    36   21   22 1
    37   22   23 1
    38   22   46 1
    39   22   47 1
    40   23   48 1
    41   23   49 1
    42   23   50 1
    43   24   25 2
    44   24   26 2
    45   24   27 1
    46   27   32 1
    47   27   28 1
    48   28   29 1
    49   28   51 1
    50   28   52 1
    51   29   30 1
    52   29   53 1
    53   29   54 1
    54   30   31 1
    55   30   33 1
    56   31   32 1
    57   31   55 1
    58   31   56 1
    59   32   57 1
    60   32   58 1
    61   33   34 1
    62   33   59 1
    63   33   60 1
    64   34   61 1
    65   34   62 1
    66   34   63 1
    67   35   64 1
    68   35   65 1
    69   35   66 1
@<TRIPOS>MOLECULE
ZINC18324776
   65    68     0     0     0
SMALL
USER_CHARGES

@<TRIPOS>ATOM
      1 C1         -0.0187    1.5258    0.0104 C.3       1 <0>        -0.1472
      2 C2          0.0021   -0.0041    0.0020 C.3       1 <0>        -0.1154
      3 C3         -1.4333   -0.5336    0.0129 C.3       1 <0>        -0.0179
      4 C4         -1.4129   -2.0405    0.0046 C.2       1 <0>         0.2125
      5 N1         -1.4071   -2.7931   -1.0712 N.2       1 <0>        -0.4896
      6 C5         -1.3882   -4.0792   -0.7236 C.2       1 <0>         0.0659
      7 C6         -1.3817   -4.1334    0.6527 C.2       1 <0>        -0.1332
      8 N2         -1.3919   -2.8203    1.0938 N.pl3     1 <0>        -0.2435
      9 N3         -1.3825   -2.5794    2.4721 N.2       1 <0>        -0.3804
     10 C7         -1.3611   -3.5896    3.3115 C.2       1 <0>         0.3856
     11 N4         -1.3477   -4.8635    2.8932 N.2       1 <0>        -0.6634
     12 C8         -1.3637   -5.1706    1.6102 C.2       1 <0>         0.5160
     13 O1         -1.3482   -6.4650    1.2164 O.3       1 <0>        -0.6444
     14 C9         -1.3510   -3.3124    4.7674 C.ar      1 <0>        -0.0696
     15 C10        -1.3226   -4.3652    5.6804 C.ar      1 <0>         0.0723
     16 C11        -1.3133   -4.1018    7.0345 C.ar      1 <0>        -0.7301
     17 C12        -1.3321   -2.7951    7.4910 C.ar      1 <0>         0.0273
     18 C13        -1.3608   -1.7438    6.5951 C.ar      1 <0>        -0.2428
     19 C14        -1.3641   -1.9932    5.2316 C.ar      1 <0>         0.2183
     20 O2         -1.3862   -0.9606    4.3499 O.3       1 <0>        -0.2614
     21 C15        -1.3985    0.3595    4.8970 C.3       1 <0>         0.0448
     22 C16        -1.4229    1.3826    3.7597 C.3       1 <0>        -0.1490
     23 S1         -1.2780   -5.4337    8.1875 S.o2      1 <0>         2.6955
     24 O3         -1.8252   -4.9355    9.4005 O.2       1 <0>        -0.9613
     25 O4         -1.8158   -6.5654    7.5173 O.2       1 <0>        -0.9471
     26 N5          0.3135   -5.7760    8.4916 N.pl3     1 <0>        -0.9993
     27 C17         1.0454   -6.7536    7.6720 C.3       1 <0>         0.1257
     28 C18         2.3494   -6.1074    7.1922 C.3       1 <0>         0.0382
     29 N6          3.0902   -5.5890    8.3500 N.3       1 <0>        -0.5349
     30 C19         2.3371   -4.5289    9.0333 C.3       1 <0>         0.0355
     31 C20         1.0342   -5.1059    9.5847 C.3       1 <0>         0.1277
     32 C21         4.4231   -5.1157    7.9532 C.3       1 <0>         0.0491
     33 C22         5.2521   -4.8186    9.2044 C.3       1 <0>        -0.1481
     34 C23        -1.3761   -5.2575   -1.6630 C.3       1 <0>        -0.0570
     35 H1          1.0039    1.9031    0.0027 H         1 <0>         0.0513
     36 H2         -0.5459    1.8868   -0.8726 H         1 <0>         0.0538
     37 H3         -0.5289    1.8773    0.9072 H         1 <0>         0.0536
     38 H4          0.5123   -0.3556   -0.8948 H         1 <0>         0.0637
     39 H5          0.5293   -0.3651    0.8851 H         1 <0>         0.0604
     40 H6         -1.9435   -0.1821    0.9097 H         1 <0>         0.0786
     41 H7         -1.9605   -0.1726   -0.8702 H         1 <0>         0.0832
     42 H8         -1.3082   -5.3860    5.3281 H         1 <0>         0.1637
     43 H9         -1.3247   -2.5965    8.5525 H         1 <0>         0.1396
     44 H10        -1.3757   -0.7265    6.9575 H         1 <0>         0.1384
     45 H11        -2.2844    0.4866    5.5191 H         1 <0>         0.0614
     46 H12        -0.5047    0.5103    5.5023 H         1 <0>         0.0605
     47 H13        -1.4323    2.3896    4.1770 H         1 <0>         0.0741
     48 H14        -0.5370    1.2555    3.1375 H         1 <0>         0.0691
     49 H15        -2.3167    1.2318    3.1543 H         1 <0>         0.0679
     50 H16         1.2725   -7.6360    8.2702 H         1 <0>         0.0831
     51 H17         0.4391   -7.0371    6.8117 H         1 <0>         0.0995
     52 H18         2.9558   -6.8517    6.6760 H         1 <0>         0.0892
     53 H19         2.1202   -5.2882    6.5106 H         1 <0>         0.0436
     54 H20         2.9344   -4.1285    9.8524 H         1 <0>         0.0887
     55 H21         2.1080   -3.7317    8.3261 H         1 <0>         0.0397
     56 H22         0.4205   -4.3006    9.9884 H         1 <0>         0.0914
     57 H23         1.2602   -5.8269   10.3703 H         1 <0>         0.0814
     58 H24         4.9205   -5.8846    7.3620 H         1 <0>         0.0757
     59 H25         4.3241   -4.2075    7.3587 H         1 <0>         0.0329
     60 H26         6.2411   -4.4674    8.9100 H         1 <0>         0.0572
     61 H27         4.7547   -4.0497    9.7956 H         1 <0>         0.0540
     62 H28         5.3511   -5.7268    9.7988 H         1 <0>         0.0632
     63 H29        -0.3456   -5.5279   -1.8935 H         1 <0>         0.0620
     64 H30        -1.8769   -6.1032   -1.1917 H         1 <0>         0.0807
     65 H31        -1.8970   -4.9937   -2.5834 H         1 <0>         0.0597
@<TRIPOS>BOND
     1    1    2 1
     2    1   35 1
     3    1   36 1
     4    1   37 1
     5    2    3 1
     6    2   38 1
     7    2   39 1
     8    3    4 1
     9    3   40 1
    10    3   41 1
    11    4    8 1
    12    4    5 2
    13    5    6 1
    14    6    7 2
    15    6   34 1
    16    7   12 1
    17    7    8 1
    18    8    9 1
    19    9   10 2
    20   10   11 1
    21   10   14 1
    22   11   12 2
    23   12   13 1
    24   14   19 ar
    25   14   15 ar
    26   15   16 ar
    27   15   42 1
    28   16   17 ar
    29   16   23 1
    30   17   18 ar
    31   17   43 1
    32   18   19 ar
    33   18   44 1
    34   19   20 1
    35   20   21 1
    36   21   22 1
    37   21   45 1
    38   21   46 1
    39   22   47 1
    40   22   48 1
    41   22   49 1
    42   23   24 2
    43   23   25 2
    44   23   26 1
    45   26   31 1
    46   26   27 1
    47   27   28 1
    48   27   50 1
    49   27   51 1
    50   28   29 1
    51   28   52 1
    52   28   53 1
    53   29   30 1
    54   29   32 1
    55   30   31 1
    56   30   54 1
    57   30   55 1
    58   31   56 1
    59   31   57 1
    60   32   33 1
    61   32   58 1
    62   32   59 1
    63   33   60 1
    64   33   61 1
    65   33   62 1
    66   34   63 1
    67   34   64 1
    68   34   65 1
@<TRIPOS>MOLECULE
ZINC18324776
   67    70     0     0     0
SMALL
USER_CHARGES

@<TRIPOS>ATOM
      1 C1         -0.0187    1.5258    0.0104 C.3       1 <0>        -0.1527
      2 C2          0.0021   -0.0041    0.0020 C.3       1 <0>        -0.1146
      3 C3         -1.4333   -0.5336    0.0129 C.3       1 <0>        -0.0409
      4 C4         -1.4129   -2.0405    0.0046 C.2       1 <0>         0.3010
      5 N1         -1.4071   -2.7929   -1.0707 N.2       1 <0>        -0.4733
      6 C5         -1.3877   -4.0800   -0.7214 C.2       1 <0>         0.1428
      7 C6         -1.3810   -4.1322    0.6504 C.2       1 <0>        -0.1723
      8 N2         -1.3919   -2.8210    1.0945 N.pl3     1 <0>        -0.2854
      9 N3         -1.3832   -2.5699    2.4695 N.2       1 <0>        -0.2583
     10 C7         -1.3620   -3.5449    3.3321 C.2       1 <0>         0.4061
     11 N4         -1.3466   -4.8711    2.9502 N.am      1 <0>        -0.6726
     12 H1         -1.3310   -5.5667    3.6261 H         1 <0>         0.4190
     13 C8         -1.3621   -5.2077    1.6407 C.2       1 <0>         0.6010
     14 O1         -1.3478   -6.3752    1.2954 O.2       1 <0>        -0.4816
     15 C9         -1.3537   -3.2195    4.7733 C.ar      1 <0>        -0.1139
     16 C10        -1.3254   -4.2417    5.7231 C.ar      1 <0>         0.0469
     17 C11        -1.3178   -3.9318    7.0668 C.ar      1 <0>        -0.7277
     18 C12        -1.3382   -2.6100    7.4784 C.ar      1 <0>         0.0445
     19 C13        -1.3663   -1.5892    6.5478 C.ar      1 <0>        -0.2261
     20 C14        -1.3684   -1.8838    5.1935 C.ar      1 <0>         0.2477
     21 O2         -1.3904   -0.8814    4.2779 O.3       1 <0>        -0.2651
     22 C15        -1.4044    0.4562    4.7806 C.3       1 <0>         0.0428
     23 C16        -1.4284    1.4408    3.6097 C.3       1 <0>        -0.1560
     24 S1         -1.2826   -5.2233    8.2649 S.o2      1 <0>         2.6921
     25 O3         -1.8316   -4.6842    9.4596 O.2       1 <0>        -0.9290
     26 O4         -1.8188   -6.3779    7.6334 O.2       1 <0>        -0.9309
     27 N5          0.3088   -5.5535    8.5823 N.pl3     1 <0>        -1.0122
     28 C17         1.0439   -6.5580    7.7981 C.3       1 <0>         0.0949
     29 C18         2.3562   -5.9317    7.3149 C.3       1 <0>        -0.0239
     30 N6          3.0970   -5.4006    8.4661 N.4       1 <0>        -0.3828
     31 C19         2.3407   -4.3048    9.0851 C.3       1 <0>        -0.0284
     32 C20         1.0293   -4.8464    9.6524 C.3       1 <0>         0.0958
     33 C21         4.4028   -4.8994    8.0169 C.3       1 <0>        -0.0114
     34 C22         5.2254   -4.4605    9.2299 C.3       1 <0>        -0.1896
     35 C23        -1.3758   -5.2593   -1.6596 C.3       1 <0>        -0.0821
     36 H2          1.0039    1.9031    0.0027 H         1 <0>         0.0592
     37 H3         -0.5459    1.8868   -0.8726 H         1 <0>         0.0614
     38 H4         -0.5289    1.8773    0.9072 H         1 <0>         0.0565
     39 H5          0.5123   -0.3556   -0.8948 H         1 <0>         0.0710
     40 H6          0.5293   -0.3651    0.8851 H         1 <0>         0.0594
     41 H7         -1.9435   -0.1821    0.9097 H         1 <0>         0.0906
     42 H8         -1.9605   -0.1726   -0.8702 H         1 <0>         0.1040
     43 H9         -1.3098   -5.2740    5.4062 H         1 <0>         0.1484
     44 H10        -1.3324   -2.3756    8.5327 H         1 <0>         0.1534
     45 H11        -1.3821   -0.5605    6.8761 H         1 <0>         0.1551
     46 H12        -2.2911    0.6033    5.3972 H         1 <0>         0.0735
     47 H13        -0.5114    0.6279    5.3815 H         1 <0>         0.0708
     48 H14        -0.5417    1.2936    2.9931 H         1 <0>         0.0726
     49 H15        -2.3214    1.2691    3.0088 H         1 <0>         0.0719
     50 H16        -1.4391    2.4610    3.9931 H         1 <0>         0.0865
     51 H17         1.2599   -7.4244    8.4233 H         1 <0>         0.1083
     52 H18         0.4453   -6.8622    6.9395 H         1 <0>         0.1351
     53 H19         2.9579   -6.6900    6.8139 H         1 <0>         0.1474
     54 H20         2.1378   -5.1222    6.6184 H         1 <0>         0.1335
     55 H21         2.9311   -3.8642    9.8885 H         1 <0>         0.1485
     56 H22         2.1228   -3.5445    8.3351 H         1 <0>         0.1342
     57 H23         0.4209   -4.0196   10.0191 H         1 <0>         0.1362
     58 H24         1.2438   -5.5370   10.4679 H         1 <0>         0.1066
     59 H25         4.9323   -5.6903    7.4857 H         1 <0>         0.1333
     60 H26         4.2560   -4.0494    7.3505 H         1 <0>         0.1286
     61 H27         4.6958   -3.6696    9.7611 H         1 <0>         0.0809
     62 H28         5.3721   -5.3105    9.8963 H         1 <0>         0.0825
     63 H29         6.1943   -4.0886    8.8966 H         1 <0>         0.1077
     64 H30        -0.3454   -5.5297   -1.8903 H         1 <0>         0.0839
     65 H31        -1.8762   -6.1045   -1.1871 H         1 <0>         0.0849
     66 H32        -1.8973   -4.9966   -2.5800 H         1 <0>         0.0846
     67 H33         3.2364   -6.1358    9.1430 H         1 <0>         0.4258
@<TRIPOS>BOND
     1    1    2 1
     2    1   36 1
     3    1   37 1
     4    1   38 1
     5    2    3 1
     6    2   39 1
     7    2   40 1
     8    3    4 1
     9    3   41 1
    10    3   42 1
    11    4    8 1
    12    4    5 2
    13    5    6 1
    14    6    7 2
    15    6   35 1
    16    7   13 1
    17    7    8 1
    18    8    9 1
    19    9   10 2
    20   10   11 1
    21   10   15 1
    22   11   12 1
    23   11   13 am
    24   13   14 2
    25   15   20 ar
    26   15   16 ar
    27   16   17 ar
    28   16   43 1
    29   17   18 ar
    30   17   24 1
    31   18   19 ar
    32   18   44 1
    33   19   20 ar
    34   19   45 1
    35   20   21 1
    36   21   22 1
    37   22   23 1
    38   22   46 1
    39   22   47 1
    40   23   48 1
    41   23   49 1
    42   23   50 1
    43   24   25 2
    44   24   26 2
    45   24   27 1
    46   27   32 1
    47   27   28 1
    48   28   29 1
    49   28   51 1
    50   28   52 1
    51   29   30 1
    52   29   53 1
    53   29   54 1
    54   30   31 1
    55   30   33 1
    56   30   67 1
    57   31   32 1
    58   31   55 1
    59   31   56 1
    60   32   57 1
    61   32   58 1
    62   33   34 1
    63   33   59 1
    64   33   60 1
    65   34   61 1
    66   34   62 1
    67   34   63 1
    68   35   64 1
    69   35   65 1
    70   35   66 1
@<TRIPOS>MOLECULE
ZINC09224016
   25    26     0     0     0
SMALL
USER_CHARGES

@<TRIPOS>ATOM
      1 C1         -0.0184    1.5028    0.0103 C.3       1 <0>        -0.1391
      2 C2          0.0021   -0.0041    0.0020 C.2       1 <0>         0.2276
      3 C3         -1.1906   -0.6918    0.0041 C.2       1 <0>        -0.1838
      4 C4         -1.1990   -2.0975   -0.0031 C.2       1 <0>         0.0727
      5 C5          0.0161   -2.7742   -0.0126 C.2       1 <0>        -0.1606
      6 C6          1.2525   -1.9900   -0.0149 C.2       1 <0>         0.5412
      7 N1          1.1865   -0.6449   -0.0127 N.am      1 <0>        -0.5906
      8 O1          2.3345   -2.5509   -0.0232 O.2       1 <0>        -0.5158
      9 C7          0.0570   -4.2056   -0.0197 C.1       1 <0>         0.2716
     10 N2          0.0895   -5.3411   -0.0253 N.1       1 <0>        -0.4064
     11 C8         -2.4728    0.0540    0.0144 C.ar      1 <0>         0.0158
     12 C9         -2.8306    0.8519    1.1050 C.ar      1 <0>        -0.1625
     13 C10        -4.0319    1.5289    1.0733 C.ar      1 <0>         0.1042
     14 N3         -4.8375    1.4306    0.0329 N.ar      1 <0>        -0.4835
     15 C11        -4.5375    0.6886   -1.0161 C.ar      1 <0>         0.1054
     16 C12        -3.3536   -0.0172   -1.0689 C.ar      1 <0>        -0.1591
     17 H1          1.0042    1.8801    0.0026 H         1 <0>         0.0841
     18 H2         -0.5455    1.8639   -0.8728 H         1 <0>         0.1024
     19 H3         -0.5286    1.8543    0.9071 H         1 <0>         0.1042
     20 H4         -2.1318   -2.6419   -0.0008 H         1 <0>         0.1516
     21 H5         -2.1762    0.9367    1.9600 H         1 <0>         0.1377
     22 H6         -4.3172    2.1475    1.9114 H         1 <0>         0.1588
     23 H7         -5.2263    0.6366   -1.8464 H         1 <0>         0.1591
     24 H8         -3.1125   -0.6192   -1.9325 H         1 <0>         0.1389
     25 H9          2.0073   -0.1280   -0.0178 H         1 <0>         0.4261
@<TRIPOS>BOND
     1    1    2 1
     2    1   17 1
     3    1   18 1
     4    1   19 1
     5    2    7 1
     6    2    3 2
     7    3    4 1
     8    3   11 1
     9    4    5 2
    10    4   20 1
    11    5    6 1
    12    5    9 1
    13    6    7 am
    14    6    8 2
    15    7   25 1
    16    9   10 3
    17   11   16 ar
    18   11   12 ar
    19   12   13 ar
    20   12   21 1
    21   13   14 ar
    22   13   22 1
    23   14   15 ar
    24   15   16 ar
    25   15   23 1
    26   16   24 1
@<TRIPOS>MOLECULE
ZINC19796168
   63    66     0     0     0
SMALL
USER_CHARGES

@<TRIPOS>ATOM
      1 C1         -0.0187    1.5258    0.0104 C.3       1 <0>        -0.1516
      2 C2          0.0021   -0.0041    0.0020 C.3       1 <0>        -0.1160
      3 C3          0.7182   -0.4975   -1.2568 C.3       1 <0>        -0.0368
      4 C4          0.7386   -2.0043   -1.2651 C.2       1 <0>         0.1083
      5 C5          1.7436   -2.8145   -0.7017 C.2       1 <0>         0.0436
      6 C6          1.3716   -4.1454   -0.9309 C.2       1 <0>        -0.0357
      7 C7          2.2155   -5.1793   -0.4631 C.2       1 <0>         0.5719
      8 O1          1.9272   -6.3498   -0.6430 O.2       1 <0>        -0.5217
      9 N1          3.3497   -4.8379    0.1877 N.am      1 <0>        -0.6330
     10 H1          3.9439   -5.5300    0.5176 H         1 <0>         0.4219
     11 C8          3.6639   -3.5203    0.3833 C.2       1 <0>         0.3994
     12 N2          2.8908   -2.5515   -0.0437 N.2       1 <0>        -0.4298
     13 C9          4.9101   -3.1798    1.0980 C.ar      1 <0>        -0.1126
     14 C10         5.7536   -4.1922    1.5597 C.ar      1 <0>         0.0399
     15 C11         6.9158   -3.8678    2.2265 C.ar      1 <0>        -0.7185
     16 C12         7.2508   -2.5412    2.4411 C.ar      1 <0>         0.0430
     17 C13         6.4250   -1.5305    1.9894 C.ar      1 <0>        -0.2315
     18 C14         5.2556   -1.8391    1.3116 C.ar      1 <0>         0.2415
     19 O2          4.4461   -0.8467    0.8623 O.3       1 <0>        -0.2578
     20 C15         4.8632    0.4961    1.1168 C.3       1 <0>         0.0414
     21 C16         3.8319    1.4685    0.5407 C.3       1 <0>        -0.1519
     22 S1          7.9793   -5.1464    2.8085 S.o2      1 <0>         2.6926
     23 O3          8.7312   -4.5930    3.8798 O.2       1 <0>        -0.9482
     24 O4          7.1730   -6.3063    2.9631 O.2       1 <0>        -0.9501
     25 N3          9.0568   -5.4772    1.5953 N.pl3     1 <0>        -0.9979
     26 C17         8.7556   -6.4921    0.5742 C.3       1 <0>         0.1239
     27 C18         8.9742   -5.8704   -0.8093 C.3       1 <0>         0.0382
     28 N4         10.3268   -5.3015   -0.8788 N.3       1 <0>        -0.5395
     29 C19        10.4964   -4.2104    0.0900 C.3       1 <0>         0.0386
     30 C20        10.3376   -4.7598    1.5068 C.3       1 <0>         0.1243
     31 C21        10.6381   -4.8489   -2.2412 C.3       1 <0>         0.0245
     32 N5          0.1842   -4.1164   -1.6082 N.pl3     1 <0>        -0.3299
     33 N6         -0.1751   -2.7746   -1.7907 N.2       1 <0>        -0.2328
     34 C22        -0.5794   -5.2824   -2.0596 C.3       1 <0>         0.0994
     35 H2          1.0039    1.9031    0.0027 H         1 <0>         0.0577
     36 H3         -0.5459    1.8868   -0.8726 H         1 <0>         0.0559
     37 H4         -0.5289    1.8773    0.9072 H         1 <0>         0.0565
     38 H5          0.5293   -0.3651    0.8851 H         1 <0>         0.0665
     39 H6         -1.0205   -0.3814    0.0098 H         1 <0>         0.0628
     40 H7          0.1910   -0.1364   -2.1398 H         1 <0>         0.0831
     41 H8          1.7408   -0.1202   -1.2645 H         1 <0>         0.0935
     42 H9          5.4957   -5.2279    1.3950 H         1 <0>         0.1438
     43 H10         8.1628   -2.2958    2.9650 H         1 <0>         0.1492
     44 H11         6.6926   -0.4983    2.1608 H         1 <0>         0.1488
     45 H12         4.9489    0.6524    2.1922 H         1 <0>         0.0678
     46 H13         5.8306    0.6715    0.6460 H         1 <0>         0.0666
     47 H14         3.7463    1.3123   -0.5346 H         1 <0>         0.0692
     48 H15         2.8646    1.2931    1.0115 H         1 <0>         0.0720
     49 H16         4.1502    2.4927    0.7349 H         1 <0>         0.0796
     50 H17         9.4199   -7.3470    0.7005 H         1 <0>         0.0879
     51 H18         7.7185   -6.8131    0.6717 H         1 <0>         0.0935
     52 H19         8.8627   -6.6382   -1.5748 H         1 <0>         0.0901
     53 H20         8.2393   -5.0824   -0.9741 H         1 <0>         0.0394
     54 H21        11.4890   -3.7744   -0.0233 H         1 <0>         0.0905
     55 H22         9.7403   -3.4456   -0.0874 H         1 <0>         0.0393
     56 H23        10.3460   -3.9360    2.2206 H         1 <0>         0.0948
     57 H24        11.1569   -5.4449    1.7245 H         1 <0>         0.0867
     58 H25         9.9216   -4.0848   -2.5429 H         1 <0>         0.0257
     59 H26        11.6450   -4.4322   -2.2645 H         1 <0>         0.0713
     60 H27        10.5786   -5.6939   -2.9273 H         1 <0>         0.0713
     61 H28        -1.2781   -5.5834   -1.2791 H         1 <0>         0.0824
     62 H29        -1.1323   -5.0268   -2.9634 H         1 <0>         0.0965
     63 H30         0.1042   -6.1043   -2.2721 H         1 <0>         0.1003
@<TRIPOS>BOND
     1    1    2 1
     2    1   35 1
     3    1   36 1
     4    1   37 1
     5    2    3 1
     6    2   38 1
     7    2   39 1
     8    3    4 1
     9    3   40 1
    10    3   41 1
    11    4   33 2
    12    4    5 1
    13    5   12 1
    14    5    6 2
    15    6    7 1
    16    6   32 1
    17    7    8 2
    18    7    9 am
    19    9   10 1
    20    9   11 1
    21   11   12 2
    22   11   13 1
    23   13   18 ar
    24   13   14 ar
    25   14   15 ar
    26   14   42 1
    27   15   16 ar
    28   15   22 1
    29   16   17 ar
    30   16   43 1
    31   17   18 ar
    32   17   44 1
    33   18   19 1
    34   19   20 1
    35   20   21 1
    36   20   45 1
    37   20   46 1
    38   21   47 1
    39   21   48 1
    40   21   49 1
    41   22   23 2
    42   22   24 2
    43   22   25 1
    44   25   30 1
    45   25   26 1
    46   26   27 1
    47   26   50 1
    48   26   51 1
    49   27   28 1
    50   27   52 1
    51   27   53 1
    52   28   29 1
    53   28   31 1
    54   29   30 1
    55   29   54 1
    56   29   55 1
    57   30   56 1
    58   30   57 1
    59   31   58 1
    60   31   59 1
    61   31   60 1
    62   32   33 1
    63   32   34 1
    64   34   61 1
    65   34   62 1
    66   34   63 1
@<TRIPOS>MOLECULE
ZINC19796168
   63    66     0     0     0
SMALL
USER_CHARGES

@<TRIPOS>ATOM
      1 C1         -0.0187    1.5258    0.0104 C.3       1 <0>        -0.1539
      2 C2          0.0021   -0.0041    0.0020 C.3       1 <0>        -0.1188
      3 C3          0.7182   -0.4975   -1.2568 C.3       1 <0>        -0.0455
      4 C4          0.7386   -2.0043   -1.2651 C.2       1 <0>         0.0795
      5 C5          1.7371   -2.8090   -0.7054 C.2       1 <0>         0.0226
      6 C6          1.3740   -4.1350   -0.9304 C.2       1 <0>        -0.0270
      7 C7          2.2608   -5.1909   -0.4384 C.2       1 <0>         0.5560
      8 O1          1.9844   -6.3672   -0.6123 O.2       1 <0>        -0.4907
      9 N1          3.3842   -4.8398    0.2075 N.2       1 <0>        -0.5489
     10 C8          3.6977   -3.5767    0.4033 C.2       1 <0>         0.4949
     11 N2          2.9154   -2.5523   -0.0295 N.pl3     1 <0>        -0.5912
     12 C9          4.9471   -3.2598    1.1207 C.ar      1 <0>        -0.1387
     13 C10         5.3072   -1.9297    1.3507 C.ar      1 <0>         0.0502
     14 C11         6.4754   -1.6404    2.0219 C.ar      1 <0>        -0.7241
     15 C12         7.2958   -2.6630    2.4697 C.ar      1 <0>         0.0516
     16 C13         6.9520   -3.9820    2.2486 C.ar      1 <0>        -0.2347
     17 C14         5.7769   -4.2915    1.5805 C.ar      1 <0>         0.2542
     18 O2          5.4349   -5.5872    1.3679 O.3       1 <0>        -0.2513
     19 C15         6.3296   -6.5843    1.8652 C.3       1 <0>         0.0415
     20 C16         5.7806   -7.9733    1.5332 C.3       1 <0>        -0.1498
     21 S1          6.9282    0.0377    2.3112 S.o2      1 <0>         2.6935
     22 O3          8.3389    0.0542    2.4813 O.2       1 <0>        -0.9470
     23 O4          6.2716    0.8126    1.3174 O.2       1 <0>        -0.9501
     24 N3          6.2708    0.4783    3.7659 N.pl3     1 <0>        -0.9978
     25 C17         4.9211    1.0580    3.8397 C.3       1 <0>         0.1243
     26 C18         4.1139    0.2804    4.8848 C.3       1 <0>         0.0380
     27 N4          4.8523    0.2619    6.1546 N.3       1 <0>        -0.5392
     28 C19         6.1314   -0.4472    6.0169 C.3       1 <0>         0.0382
     29 C20         7.0189    0.2948    5.0189 C.3       1 <0>         0.1242
     30 C21         4.0386   -0.3238    7.2283 C.3       1 <0>         0.0243
     31 N5          0.1890   -4.1166   -1.6070 N.pl3     1 <0>        -0.3265
     32 N6         -0.1769   -2.7759   -1.7917 N.2       1 <0>        -0.2363
     33 C22        -0.5677   -5.2881   -2.0556 C.3       1 <0>         0.1018
     34 H1          1.0039    1.9031    0.0027 H         1 <0>         0.0587
     35 H2         -0.5459    1.8868   -0.8726 H         1 <0>         0.0584
     36 H3         -0.5289    1.8773    0.9072 H         1 <0>         0.0590
     37 H4          0.5293   -0.3651    0.8851 H         1 <0>         0.0617
     38 H5         -1.0205   -0.3814    0.0098 H         1 <0>         0.0685
     39 H6          0.1910   -0.1364   -2.1398 H         1 <0>         0.0924
     40 H7          1.7408   -0.1202   -1.2645 H         1 <0>         0.0851
     41 H8          4.6710   -1.1293    1.0027 H         1 <0>         0.1448
     42 H9          8.2097   -2.4272    2.9946 H         1 <0>         0.1511
     43 H10         7.5970   -4.7736    2.6002 H         1 <0>         0.1511
     44 H11         7.3075   -6.4595    1.4002 H         1 <0>         0.0690
     45 H12         6.4252   -6.4802    2.9460 H         1 <0>         0.0679
     46 H13         6.4630   -8.7339    1.9125 H         1 <0>         0.0796
     47 H14         4.8027   -8.0982    1.9981 H         1 <0>         0.0699
     48 H15         5.6850   -8.0774    0.4524 H         1 <0>         0.0705
     49 H16         4.9880    2.1054    4.1338 H         1 <0>         0.0882
     50 H17         4.4346    0.9780    2.8676 H         1 <0>         0.0929
     51 H18         3.1485    0.7644    5.0325 H         1 <0>         0.0901
     52 H19         3.9598   -0.7416    4.5387 H         1 <0>         0.0392
     53 H20         6.6291   -0.4910    6.9857 H         1 <0>         0.0908
     54 H21         5.9492   -1.4591    5.6551 H         1 <0>         0.0394
     55 H22         7.9186   -0.2894    4.8260 H         1 <0>         0.0949
     56 H23         7.2913    1.2675    5.4285 H         1 <0>         0.0873
     57 H24         3.7712   -1.3470    6.9645 H         1 <0>         0.0259
     58 H25         4.6091   -0.3253    8.1570 H         1 <0>         0.0715
     59 H26         3.1316    0.2663    7.3599 H         1 <0>         0.0715
     60 H27        -1.2651   -5.5910   -1.2745 H         1 <0>         0.0826
     61 H28        -1.1218   -5.0381   -2.9604 H         1 <0>         0.0959
     62 H29         0.1207   -6.1067   -2.2656 H         1 <0>         0.1018
     63 H30         3.1857   -1.6357    0.1370 H         1 <0>         0.4171
@<TRIPOS>BOND
     1    1    2 1
     2    1   34 1
     3    1   35 1
     4    1   36 1
     5    2    3 1
     6    2   37 1
     7    2   38 1
     8    3    4 1
     9    3   39 1
    10    3   40 1
    11    4   32 2
    12    4    5 1
    13    5   11 1
    14    5    6 2
    15    6    7 1
    16    6   31 1
    17    7    8 2
    18    7    9 1
    19    9   10 2
    20   10   11 1
    21   10   12 1
    22   11   63 1
    23   12   17 ar
    24   12   13 ar
    25   13   14 ar
    26   13   41 1
    27   14   15 ar
    28   14   21 1
    29   15   16 ar
    30   15   42 1
    31   16   17 ar
    32   16   43 1
    33   17   18 1
    34   18   19 1
    35   19   20 1
    36   19   44 1
    37   19   45 1
    38   20   46 1
    39   20   47 1
    40   20   48 1
    41   21   22 2
    42   21   23 2
    43   21   24 1
    44   24   29 1
    45   24   25 1
    46   25   26 1
    47   25   49 1
    48   25   50 1
    49   26   27 1
    50   26   51 1
    51   26   52 1
    52   27   28 1
    53   27   30 1
    54   28   29 1
    55   28   53 1
    56   28   54 1
    57   29   55 1
    58   29   56 1
    59   30   57 1
    60   30   58 1
    61   30   59 1
    62   31   32 1
    63   31   33 1
    64   33   60 1
    65   33   61 1
    66   33   62 1
@<TRIPOS>MOLECULE
ZINC19796168
   62    65     0     0     0
SMALL
USER_CHARGES

@<TRIPOS>ATOM
      1 C1         -0.0187    1.5258    0.0104 C.3       1 <0>        -0.1485
      2 C2          0.0021   -0.0041    0.0020 C.3       1 <0>        -0.1148
      3 C3         -1.4333   -0.5336    0.0129 C.3       1 <0>        -0.0265
      4 C4         -1.4129   -2.0405    0.0046 C.2       1 <0>         0.0755
      5 C5         -1.4070   -2.8569   -1.1475 C.ar      1 <0>         0.0668
      6 C6         -1.3869   -4.1920   -0.7014 C.ar      1 <0>        -0.0515
      7 C7         -1.3777   -5.2165   -1.6565 C.ar      1 <0>         0.4648
      8 O1         -1.3588   -6.5164   -1.2751 O.3       1 <0>        -0.6909
      9 N1         -1.3884   -4.8893   -2.9402 N.ar      1 <0>        -0.5725
     10 C8         -1.4074   -3.6162   -3.3266 C.ar      1 <0>         0.3612
     11 N2         -1.4163   -2.6161   -2.4630 N.ar      1 <0>        -0.5554
     12 C9         -1.4186   -3.3091   -4.7764 C.ar      1 <0>        -0.0636
     13 C10        -1.4328   -1.9850   -5.2116 C.ar      1 <0>         0.0543
     14 C11        -1.4432   -1.7045   -6.5622 C.ar      1 <0>        -0.7317
     15 C12        -1.4396   -2.7334   -7.4883 C.ar      1 <0>         0.0205
     16 C13        -1.4256   -4.0494   -7.0685 C.ar      1 <0>        -0.2451
     17 C14        -1.4092   -4.3463   -5.7145 C.ar      1 <0>         0.2216
     18 O2         -1.3897   -5.6394   -5.3005 O.3       1 <0>        -0.2427
     19 C15        -1.3811   -6.6454   -6.3153 C.3       1 <0>         0.0442
     20 C16        -1.3591   -8.0288   -5.6620 C.3       1 <0>        -0.1464
     21 S1         -1.4617   -0.0302   -7.1108 S.o2      1 <0>         2.6962
     22 O3         -2.0201   -0.0370   -8.4174 O.2       1 <0>        -0.9629
     23 O4         -2.0135    0.7385   -6.0505 O.2       1 <0>        -0.9522
     24 N3          0.1150    0.4496   -7.2724 N.pl3     1 <0>        -1.0004
     25 C17         0.8390    1.0557   -6.1447 C.3       1 <0>         0.1268
     26 C18         2.1670    0.3130   -5.9632 C.3       1 <0>         0.0372
     27 N4          2.8976    0.3041   -7.2376 N.3       1 <0>        -0.5398
     28 C19         2.1569   -0.4314   -8.2713 C.3       1 <0>         0.0376
     29 C20         0.8304    0.2753   -8.5456 C.3       1 <0>         0.1276
     30 C21         4.2487   -0.2463   -7.0660 C.3       1 <0>         0.0248
     31 N5         -1.3812   -4.1504    0.6672 N.pl3     1 <0>        -0.3678
     32 N6         -1.3920   -2.8055    1.0596 N.2       1 <0>        -0.2631
     33 C22        -1.3618   -5.3088    1.5638 C.3       1 <0>         0.1224
     34 H1          1.0039    1.9031    0.0027 H         1 <0>         0.0507
     35 H2         -0.5459    1.8868   -0.8726 H         1 <0>         0.0575
     36 H3         -0.5289    1.8773    0.9072 H         1 <0>         0.0512
     37 H4          0.5123   -0.3556   -0.8948 H         1 <0>         0.0656
     38 H5          0.5293   -0.3651    0.8851 H         1 <0>         0.0578
     39 H6         -1.9435   -0.1821    0.9097 H         1 <0>         0.0708
     40 H7         -1.9605   -0.1726   -0.8702 H         1 <0>         0.0861
     41 H8         -1.4360   -1.1795   -4.4922 H         1 <0>         0.1566
     42 H9         -1.4482   -2.5062   -8.5441 H         1 <0>         0.1359
     43 H10        -1.4233   -4.8477   -7.7959 H         1 <0>         0.1361
     44 H11        -2.2755   -6.5484   -6.9307 H         1 <0>         0.0581
     45 H12        -0.4957   -6.5243   -6.9395 H         1 <0>         0.0570
     46 H13        -1.3526   -8.7961   -6.4360 H         1 <0>         0.0694
     47 H14        -0.4647   -8.1258   -5.0466 H         1 <0>         0.0690
     48 H15        -2.2445   -8.1499   -5.0378 H         1 <0>         0.0696
     49 H16         1.0335    2.1070   -6.3571 H         1 <0>         0.0814
     50 H17         0.2427    0.9670   -5.2366 H         1 <0>         0.0979
     51 H18         2.7652    0.8176   -5.2045 H         1 <0>         0.0879
     52 H19         1.9704   -0.7122   -5.6495 H         1 <0>         0.0449
     53 H20         2.7478   -0.4666   -9.1865 H         1 <0>         0.0858
     54 H21         1.9605   -1.4462   -7.9254 H         1 <0>         0.0417
     55 H22         0.2284   -0.3292   -9.2240 H         1 <0>         0.0922
     56 H23         1.0240    1.2501   -8.9932 H         1 <0>         0.0807
     57 H24         4.1801   -1.2690   -6.6954 H         1 <0>         0.0264
     58 H25         4.7675   -0.2413   -8.0246 H         1 <0>         0.0675
     59 H26         4.8011    0.3631   -6.3508 H         1 <0>         0.0692
     60 H27        -0.3294   -5.5825    1.7815 H         1 <0>         0.0592
     61 H28        -1.8748   -5.0582    2.4923 H         1 <0>         0.0722
     62 H29        -1.8667   -6.1476    1.0847 H         1 <0>         0.0961
@<TRIPOS>BOND
     1    1    2 1
     2    1   34 1
     3    1   35 1
     4    1   36 1
     5    2    3 1
     6    2   37 1
     7    2   38 1
     8    3    4 1
     9    3   39 1
    10    3   40 1
    11    4   32 2
    12    4    5 1
    13    5   11 ar
    14    5    6 ar
    15    6    7 ar
    16    6   31 1
    17    7    8 1
    18    7    9 ar
    19    9   10 ar
    20   10   11 ar
    21   10   12 1
    22   12   17 ar
    23   12   13 ar
    24   13   14 ar
    25   13   41 1
    26   14   15 ar
    27   14   21 1
    28   15   16 ar
    29   15   42 1
    30   16   17 ar
    31   16   43 1
    32   17   18 1
    33   18   19 1
    34   19   20 1
    35   19   44 1
    36   19   45 1
    37   20   46 1
    38   20   47 1
    39   20   48 1
    40   21   22 2
    41   21   23 2
    42   21   24 1
    43   24   29 1
    44   24   25 1
    45   25   26 1
    46   25   49 1
    47   25   50 1
    48   26   27 1
    49   26   51 1
    50   26   52 1
    51   27   28 1
    52   27   30 1
    53   28   29 1
    54   28   53 1
    55   28   54 1
    56   29   55 1
    57   29   56 1
    58   30   57 1
    59   30   58 1
    60   30   59 1
    61   31   32 1
    62   31   33 1
    63   33   60 1
    64   33   61 1
    65   33   62 1
@<TRIPOS>MOLECULE
ZINC19796168
   64    67     0     0     0
SMALL
USER_CHARGES

@<TRIPOS>ATOM
      1 C1         -0.0187    1.5258    0.0104 C.3       1 <0>        -0.1524
      2 C2          0.0021   -0.0041    0.0020 C.3       1 <0>        -0.1163
      3 C3         -1.4333   -0.5336    0.0129 C.3       1 <0>        -0.0382
      4 C4         -1.4129   -2.0405    0.0046 C.2       1 <0>         0.1125
      5 C5         -1.4070   -2.8548   -1.1446 C.2       1 <0>         0.0358
      6 C6         -1.3861   -4.1841   -0.7032 C.2       1 <0>        -0.0303
      7 C7         -1.3769   -5.2214   -1.6643 C.2       1 <0>         0.5721
      8 O1         -1.3591   -6.3907   -1.3206 O.2       1 <0>        -0.5177
      9 N1         -1.3887   -4.8848   -2.9731 N.am      1 <0>        -0.6346
     10 H1         -1.3827   -5.5793   -3.6502 H         1 <0>         0.4185
     11 C8         -1.4095   -3.5686   -3.3476 C.2       1 <0>         0.3827
     12 N2         -1.4171   -2.5966   -2.4679 N.2       1 <0>        -0.4195
     13 C9         -1.4219   -3.2333   -4.7854 C.ar      1 <0>        -0.1025
     14 C10        -1.4183   -4.2493   -5.7432 C.ar      1 <0>         0.0333
     15 C11        -1.4299   -3.9298   -7.0842 C.ar      1 <0>        -0.7276
     16 C12        -1.4448   -2.6046   -7.4863 C.ar      1 <0>         0.0370
     17 C13        -1.4485   -1.5903   -6.5488 C.ar      1 <0>        -0.2285
     18 C14        -1.4433   -1.8942   -5.1961 C.ar      1 <0>         0.2470
     19 O2         -1.4527   -0.8984   -4.2738 O.3       1 <0>        -0.2539
     20 C15        -1.4745    0.4426   -4.7671 C.3       1 <0>         0.0414
     21 C16        -1.4823    1.4191   -3.5893 C.3       1 <0>        -0.1545
     22 S1         -1.4253   -5.2129   -8.2917 S.o2      1 <0>         2.6914
     23 O3         -0.8874   -4.6500   -9.4805 O.2       1 <0>        -0.9316
     24 O4         -0.8594   -6.3568   -7.6667 O.2       1 <0>        -0.9334
     25 N3         -3.0059   -5.5847   -8.6172 N.pl3     1 <0>        -1.0127
     26 C17        -3.7155   -6.6148   -7.8430 C.3       1 <0>         0.0947
     27 C18        -5.0462   -6.0287   -7.3599 C.3       1 <0>        -0.0248
     28 N4         -5.7976   -5.5098   -8.5098 N.4       1 <0>        -0.3832
     29 C19        -5.0699   -4.3889   -9.1182 C.3       1 <0>        -0.0235
     30 C20        -3.7420   -4.8899   -9.6846 C.3       1 <0>         0.0949
     31 C21        -7.1182   -5.0483   -8.0616 C.3       1 <0>        -0.0476
     32 N5         -1.3799   -4.1501    0.6637 N.pl3     1 <0>        -0.3251
     33 N6         -1.3920   -2.8068    1.0614 N.2       1 <0>        -0.2289
     34 C22        -1.3598   -5.3128    1.5547 C.3       1 <0>         0.0963
     35 H2          1.0039    1.9031    0.0027 H         1 <0>         0.0582
     36 H3         -0.5459    1.8868   -0.8726 H         1 <0>         0.0570
     37 H4         -0.5289    1.8773    0.9072 H         1 <0>         0.0575
     38 H5          0.5123   -0.3556   -0.8948 H         1 <0>         0.0655
     39 H6          0.5293   -0.3651    0.8851 H         1 <0>         0.0644
     40 H7         -1.9435   -0.1821    0.9097 H         1 <0>         0.0854
     41 H8         -1.9605   -0.1726   -0.8702 H         1 <0>         0.0931
     42 H9         -1.4060   -5.2840   -5.4339 H         1 <0>         0.1444
     43 H10        -1.4531   -2.3629   -8.5389 H         1 <0>         0.1495
     44 H11        -1.4598   -0.5592   -6.8698 H         1 <0>         0.1518
     45 H12        -0.5902    0.6189   -5.3794 H         1 <0>         0.0706
     46 H13        -2.3699    0.5934   -5.3701 H         1 <0>         0.0677
     47 H14        -1.4990    2.4420   -3.9655 H         1 <0>         0.0830
     48 H15        -2.3667    1.2428   -2.9770 H         1 <0>         0.0703
     49 H16        -0.5869    1.2683   -2.9863 H         1 <0>         0.0743
     50 H17        -3.9053   -7.4822   -8.4752 H         1 <0>         0.1071
     51 H18        -3.1115   -6.9087   -6.9845 H         1 <0>         0.1349
     52 H19        -5.6284   -6.8070   -6.8666 H         1 <0>         0.1469
     53 H20        -4.8527   -5.2186   -6.6568 H         1 <0>         0.1345
     54 H21        -5.6695   -3.9589   -9.9204 H         1 <0>         0.1472
     55 H22        -4.8756   -3.6285   -8.3618 H         1 <0>         0.1345
     56 H23        -3.1556   -4.0439  -10.0432 H         1 <0>         0.1362
     57 H24        -3.9345   -5.5801  -10.5059 H         1 <0>         0.1058
     58 H25        -6.9949   -4.2582   -7.3209 H         1 <0>         0.1220
     59 H26        -7.6771   -4.6629   -8.9144 H         1 <0>         0.1268
     60 H27        -7.6626   -5.8814   -7.6170 H         1 <0>         0.1264
     61 H28        -0.3273   -5.5873    1.7707 H         1 <0>         0.0857
     62 H29        -1.8725   -5.0668    2.4846 H         1 <0>         0.0997
     63 H30        -1.8648   -6.1494    1.0718 H         1 <0>         0.1010
     64 H31        -5.9143   -6.2436   -9.1925 H         1 <0>         0.4277
@<TRIPOS>BOND
     1    1    2 1
     2    1   35 1
     3    1   36 1
     4    1   37 1
     5    2    3 1
     6    2   38 1
     7    2   39 1
     8    3    4 1
     9    3   40 1
    10    3   41 1
    11    4   33 2
    12    4    5 1
    13    5   12 1
    14    5    6 2
    15    6    7 1
    16    6   32 1
    17    7    8 2
    18    7    9 am
    19    9   10 1
    20    9   11 1
    21   11   12 2
    22   11   13 1
    23   13   18 ar
    24   13   14 ar
    25   14   15 ar
    26   14   42 1
    27   15   16 ar
    28   15   22 1
    29   16   17 ar
    30   16   43 1
    31   17   18 ar
    32   17   44 1
    33   18   19 1
    34   19   20 1
    35   20   21 1
    36   20   45 1
    37   20   46 1
    38   21   47 1
    39   21   48 1
    40   21   49 1
    41   22   23 2
    42   22   24 2
    43   22   25 1
    44   25   30 1
    45   25   26 1
    46   26   27 1
    47   26   50 1
    48   26   51 1
    49   27   28 1
    50   27   52 1
    51   27   53 1
    52   28   29 1
    53   28   31 1
    54   28   64 1
    55   29   30 1
    56   29   54 1
    57   29   55 1
    58   30   56 1
    59   30   57 1
    60   31   58 1
    61   31   59 1
    62   31   60 1
    63   32   33 1
    64   32   34 1
    65   34   61 1
    66   34   62 1
    67   34   63 1
@<TRIPOS>MOLECULE
ZINC03861807
   30    31     0     0     0
SMALL
USER_CHARGES

@<TRIPOS>ATOM
      1 C1         -0.0187    1.5258    0.0104 C.3       1 <0>        -0.1415
      2 C2          0.0021   -0.0041    0.0020 C.3       1 <0>        -0.1122
      3 C3          0.7421   -0.5109    1.2415 C.3       1 <0>        -0.1434
      4 C4         -1.4333   -0.5336    0.0129 C.3       1 <0>         0.1228
      5 N1         -2.1054   -0.1483   -1.2305 N.am      1 <0>        -0.5064
      6 C5         -2.7896    1.0542   -1.3029 C.2       1 <0>         0.3270
      7 C6         -3.4188    1.3971   -2.4931 C.2       1 <0>        -0.1566
      8 C7         -3.3428    0.5129   -3.5907 C.2       1 <0>         0.5930
      9 O1         -3.8857    0.7913   -4.6449 O.2       1 <0>        -0.5148
     10 N2         -2.6613   -0.6442   -3.4587 N.am      1 <0>        -0.5518
     11 C8         -2.0526   -0.9608   -2.3028 C.2       1 <0>         0.7063
     12 O2         -1.4428   -2.0098   -2.2221 O.2       1 <0>        -0.5287
     13 C9         -2.5785   -1.5664   -4.5940 C.3       1 <0>         0.0827
     14 N3         -4.0103    2.6257   -2.2774 N.pl3     1 <0>        -0.5187
     15 H1         -4.5284    3.1372   -2.9183 H         1 <0>         0.4381
     16 C10        -3.7321    2.9790   -1.0073 C.2       1 <0>         0.2767
     17 N4         -3.0113    2.0471   -0.4377 N.2       1 <0>        -0.4957
     18 H2          1.0039    1.9031    0.0027 H         1 <0>         0.0532
     19 H3         -0.5459    1.8868   -0.8726 H         1 <0>         0.0473
     20 H4         -0.5289    1.8773    0.9072 H         1 <0>         0.0653
     21 H5          0.5123   -0.3556   -0.8948 H         1 <0>         0.0742
     22 H6          0.2319   -0.1594    2.1383 H         1 <0>         0.0596
     23 H7          0.7568   -1.6008    1.2356 H         1 <0>         0.0591
     24 H8          1.7647   -0.1336    1.2338 H         1 <0>         0.0613
     25 H9         -1.4190   -1.6203    0.0965 H         1 <0>         0.1003
     26 H10        -1.9701   -0.1109    0.8621 H         1 <0>         0.1000
     27 H11        -3.1215   -1.1486   -5.4417 H         1 <0>         0.1034
     28 H12        -1.5337   -1.7124   -4.8680 H         1 <0>         0.0826
     29 H13        -3.0188   -2.5242   -4.3168 H         1 <0>         0.0828
     30 H14        -4.0547    3.8934   -0.5315 H         1 <0>         0.2343
@<TRIPOS>BOND
     1    1    2 1
     2    1   18 1
     3    1   19 1
     4    1   20 1
     5    2    3 1
     6    2    4 1
     7    2   21 1
     8    3   22 1
     9    3   23 1
    10    3   24 1
    11    4    5 1
    12    4   25 1
    13    4   26 1
    14    5   11 am
    15    5    6 1
    16    6   17 1
    17    6    7 2
    18    7    8 1
    19    7   14 1
    20    8    9 2
    21    8   10 am
    22   10   11 am
    23   10   13 1
    24   11   12 2
    25   13   27 1
    26   13   28 1
    27   13   29 1
    28   14   15 1
    29   14   16 1
    30   16   17 2
    31   16   30 1
@<TRIPOS>MOLECULE
ZINC14953365
   31    33     0     0     0
SMALL
USER_CHARGES

@<TRIPOS>ATOM
      1 C1         -0.0187    1.5258    0.0104 C.3       1 <0>        -0.1423
      2 C2          0.0021   -0.0041    0.0020 C.3       1 <0>        -0.1231
      3 C3          0.7421   -0.5109    1.2415 C.3       1 <0>         0.0541
      4 O1          0.7614   -1.9398    1.2337 O.3       1 <0>        -0.2395
      5 C4          1.3846   -2.5535    2.2722 C.ar      1 <0>         0.1595
      6 C5          1.9611   -1.7987    3.2821 C.ar      1 <0>        -0.2333
      7 C6          2.5948   -2.4244    4.3380 C.ar      1 <0>        -0.0982
      8 C7          2.6582   -3.8062    4.3957 C.ar      1 <0>        -0.1779
      9 C8          2.0888   -4.5703    3.3986 C.ar      1 <0>        -0.0533
     10 C9          1.4423   -3.9501    2.3303 C.ar      1 <0>        -0.0190
     11 C10         0.8245   -4.7657    1.2592 C.ar      1 <0>         0.3508
     12 N1          0.2275   -4.1264    0.2544 N.ar      1 <0>        -0.6291
     13 C11        -0.3501   -4.7739   -0.7445 C.ar      1 <0>         0.5035
     14 O2         -0.9512   -4.1076   -1.7566 O.3       1 <0>        -0.7157
     15 C12        -0.3151   -6.2310   -0.7156 C.ar      1 <0>        -0.1910
     16 N2         -0.7406   -7.2297   -1.4617 N.2       1 <0>        -0.3291
     17 N3         -0.3994   -8.3395   -0.9027 N.2       1 <0>        -0.1963
     18 N4          0.2445   -8.1643    0.1989 N.2       1 <0>        -0.3779
     19 C13         0.3620   -6.8697    0.4258 C.ar      1 <0>         0.1454
     20 N5          0.9051   -6.0766    1.3584 N.ar      1 <0>        -0.5680
     21 H1          1.0039    1.9031    0.0027 H         1 <0>         0.0496
     22 H2         -0.5459    1.8868   -0.8726 H         1 <0>         0.0570
     23 H3         -0.5289    1.8773    0.9072 H         1 <0>         0.0496
     24 H4         -1.0205   -0.3814    0.0098 H         1 <0>         0.0770
     25 H5          0.5123   -0.3556   -0.8948 H         1 <0>         0.0771
     26 H6          1.7647   -0.1336    1.2338 H         1 <0>         0.0463
     27 H7          0.2319   -0.1594    2.1383 H         1 <0>         0.0462
     28 H8          1.9151   -0.7204    3.2430 H         1 <0>         0.1171
     29 H9          3.0433   -1.8327    5.1223 H         1 <0>         0.1089
     30 H10         3.1558   -4.2876    5.2246 H         1 <0>         0.1125
     31 H11         2.1408   -5.6480    3.4470 H         1 <0>         0.1392
@<TRIPOS>BOND
     1    1    2 1
     2    1   21 1
     3    1   22 1
     4    1   23 1
     5    2    3 1
     6    2   24 1
     7    2   25 1
     8    3    4 1
     9    3   26 1
    10    3   27 1
    11    4    5 1
    12    5   10 ar
    13    5    6 ar
    14    6    7 ar
    15    6   28 1
    16    7    8 ar
    17    7   29 1
    18    8    9 ar
    19    8   30 1
    20    9   10 ar
    21    9   31 1
    22   10   11 1
    23   11   20 ar
    24   11   12 ar
    25   12   13 ar
    26   13   14 1
    27   13   15 ar
    28   15   19 ar
    29   15   16 2
    30   16   17 1
    31   17   18 1
    32   18   19 2
    33   19   20 ar
@<TRIPOS>MOLECULE
ZINC14953365
   32    34     0     0     0
SMALL
USER_CHARGES

@<TRIPOS>ATOM
      1 C1         -0.0187    1.5258    0.0104 C.3       1 <0>        -0.1458
      2 C2          0.0021   -0.0041    0.0020 C.3       1 <0>        -0.1216
      3 C3         -1.4333   -0.5336    0.0129 C.3       1 <0>         0.0534
      4 O1         -1.4139   -1.9625    0.0050 O.3       1 <0>        -0.2533
      5 C4         -2.6153   -2.5953    0.0131 C.ar      1 <0>         0.1746
      6 C5         -3.7897   -1.8588    0.0225 C.ar      1 <0>        -0.2311
      7 C6         -5.0111   -2.5039    0.0312 C.ar      1 <0>        -0.0713
      8 C7         -5.0711   -3.8869    0.0301 C.ar      1 <0>        -0.1782
      9 C8         -3.9107   -4.6328    0.0203 C.ar      1 <0>        -0.0340
     10 C9         -2.6726   -3.9927    0.0061 C.ar      1 <0>        -0.0608
     11 C10        -1.4229   -4.7891   -0.0106 C.ar      1 <0>         0.4081
     12 N1         -0.2554   -4.1511   -0.0133 N.ar      1 <0>        -0.5727
     13 C11         0.8902   -4.8180   -0.0276 C.ar      1 <0>         0.4867
     14 O2          2.0741   -4.1594   -0.0298 O.3       1 <0>        -0.6795
     15 C12         0.8508   -6.2155   -0.0399 C.ar      1 <0>        -0.1593
     16 C13        -0.4029   -6.8559   -0.0366 C.ar      1 <0>         0.2596
     17 N2         -1.5075   -6.1089   -0.0169 N.ar      1 <0>        -0.5690
     18 N3         -0.1345   -8.1734   -0.0512 N.2       1 <0>        -0.2773
     19 N4          1.1405   -8.3484   -0.0624 N.2       1 <0>        -0.0384
     20 N5          1.7753   -7.2265   -0.0565 N.pl3     1 <0>        -0.3729
     21 H1          2.7391   -7.1171   -0.0631 H         1 <0>         0.4476
     22 H2          1.0039    1.9031    0.0027 H         1 <0>         0.0602
     23 H3         -0.5459    1.8868   -0.8726 H         1 <0>         0.0527
     24 H4         -0.5289    1.8773    0.9072 H         1 <0>         0.0527
     25 H5          0.5123   -0.3556   -0.8948 H         1 <0>         0.0759
     26 H6          0.5293   -0.3651    0.8851 H         1 <0>         0.0760
     27 H7         -1.9435   -0.1821    0.9097 H         1 <0>         0.0536
     28 H8         -1.9605   -0.1726   -0.8702 H         1 <0>         0.0536
     29 H9         -3.7496   -0.7795    0.0234 H         1 <0>         0.1258
     30 H10        -5.9238   -1.9264    0.0393 H         1 <0>         0.1192
     31 H11        -6.0299   -4.3838    0.0374 H         1 <0>         0.1223
     32 H12        -3.9616   -5.7116    0.0195 H         1 <0>         0.1433
@<TRIPOS>BOND
     1    1    2 1
     2    1   22 1
     3    1   23 1
     4    1   24 1
     5    2    3 1
     6    2   25 1
     7    2   26 1
     8    3    4 1
     9    3   27 1
    10    3   28 1
    11    4    5 1
    12    5   10 ar
    13    5    6 ar
    14    6    7 ar
    15    6   29 1
    16    7    8 ar
    17    7   30 1
    18    8    9 ar
    19    8   31 1
    20    9   10 ar
    21    9   32 1
    22   10   11 1
    23   11   17 ar
    24   11   12 ar
    25   12   13 ar
    26   13   14 1
    27   13   15 ar
    28   15   16 ar
    29   15   20 1
    30   16   17 ar
    31   16   18 1
    32   18   19 2
    33   19   20 1
    34   20   21 1
@<TRIPOS>MOLECULE
ZINC14953365
   32    34     0     0     0
SMALL
USER_CHARGES

@<TRIPOS>ATOM
      1 C1         -0.0187    1.5258    0.0104 C.3       1 <0>        -0.1457
      2 C2          0.0021   -0.0041    0.0020 C.3       1 <0>        -0.1224
      3 C3         -1.4333   -0.5336    0.0129 C.3       1 <0>         0.0532
      4 O1         -1.4139   -1.9625    0.0050 O.3       1 <0>        -0.2520
      5 C4         -2.6152   -2.5953    0.0131 C.ar      1 <0>         0.1789
      6 C5         -3.7896   -1.8588    0.0225 C.ar      1 <0>        -0.2310
      7 C6         -5.0111   -2.5039    0.0308 C.ar      1 <0>        -0.0680
      8 C7         -5.0712   -3.8870    0.0297 C.ar      1 <0>        -0.1802
      9 C8         -3.9111   -4.6331    0.0208 C.ar      1 <0>        -0.0323
     10 C9         -2.6726   -3.9930    0.0061 C.ar      1 <0>        -0.0665
     11 C10        -1.4235   -4.7891   -0.0106 C.ar      1 <0>         0.4378
     12 N1         -0.2555   -4.1526   -0.0133 N.ar      1 <0>        -0.5853
     13 C11         0.8886   -4.8183   -0.0276 C.ar      1 <0>         0.5093
     14 O2          2.0713   -4.1592   -0.0297 O.3       1 <0>        -0.6423
     15 C12         0.8505   -6.2267   -0.0400 C.ar      1 <0>        -0.1919
     16 C13        -0.4080   -6.8564   -0.0366 C.ar      1 <0>         0.3382
     17 N2         -1.5070   -6.1104   -0.0169 N.ar      1 <0>        -0.6189
     18 N3         -0.1580   -8.2010   -0.0510 N.pl3     1 <0>        -0.5059
     19 N4          1.2372   -8.3495   -0.0627 N.2       1 <0>        -0.0830
     20 N5          1.7907   -7.1872   -0.0559 N.2       1 <0>        -0.1662
     21 H1         -0.8167   -8.9130   -0.0527 H         1 <0>         0.4358
     22 H2          1.0039    1.9031    0.0027 H         1 <0>         0.0608
     23 H3         -0.5459    1.8868   -0.8726 H         1 <0>         0.0526
     24 H4         -0.5289    1.8773    0.9072 H         1 <0>         0.0526
     25 H5          0.5123   -0.3556   -0.8948 H         1 <0>         0.0768
     26 H6          0.5293   -0.3651    0.8851 H         1 <0>         0.0769
     27 H7         -1.9435   -0.1821    0.9097 H         1 <0>         0.0542
     28 H8         -1.9605   -0.1726   -0.8702 H         1 <0>         0.0542
     29 H9         -3.7496   -0.7795    0.0238 H         1 <0>         0.1271
     30 H10        -5.9237   -1.9264    0.0385 H         1 <0>         0.1201
     31 H11        -6.0302   -4.3837    0.0362 H         1 <0>         0.1222
     32 H12        -3.9622   -5.7119    0.0203 H         1 <0>         0.1409
@<TRIPOS>BOND
     1    1    2 1
     2    1   22 1
     3    1   23 1
     4    1   24 1
     5    2    3 1
     6    2   25 1
     7    2   26 1
     8    3    4 1
     9    3   27 1
    10    3   28 1
    11    4    5 1
    12    5   10 ar
    13    5    6 ar
    14    6    7 ar
    15    6   29 1
    16    7    8 ar
    17    7   30 1
    18    8    9 ar
    19    8   31 1
    20    9   10 ar
    21    9   32 1
    22   10   11 1
    23   11   17 ar
    24   11   12 ar
    25   12   13 ar
    26   13   14 1
    27   13   15 ar
    28   15   16 ar
    29   15   20 1
    30   16   17 ar
    31   16   18 1
    32   18   21 1
    33   18   19 1
    34   19   20 2
@<TRIPOS>MOLECULE
ZINC14953365
   32    34     0     0     0
SMALL
USER_CHARGES

@<TRIPOS>ATOM
      1 C1         -0.0187    1.5258    0.0104 C.3       1 <0>        -0.1457
      2 C2          0.0021   -0.0041    0.0020 C.3       1 <0>        -0.1218
      3 C3          0.7421   -0.5109    1.2415 C.3       1 <0>         0.0528
      4 O1          0.7614   -1.9398    1.2337 O.3       1 <0>        -0.2494
      5 C4          1.3846   -2.5535    2.2722 C.ar      1 <0>         0.1779
      6 C5          1.9611   -1.7987    3.2821 C.ar      1 <0>        -0.2330
      7 C6          2.5948   -2.4244    4.3380 C.ar      1 <0>        -0.0705
      8 C7          2.6582   -3.8062    4.3957 C.ar      1 <0>        -0.1809
      9 C8          2.0888   -4.5703    3.3986 C.ar      1 <0>        -0.0318
     10 C9          1.4423   -3.9501    2.3303 C.ar      1 <0>        -0.0655
     11 C10         0.8245   -4.7657    1.2592 C.ar      1 <0>         0.4409
     12 N1          0.2275   -4.1264    0.2544 N.ar      1 <0>        -0.6040
     13 C11        -0.3501   -4.7739   -0.7445 C.ar      1 <0>         0.5269
     14 O2         -0.9512   -4.1076   -1.7566 O.3       1 <0>        -0.6419
     15 C12        -0.3151   -6.2310   -0.7156 C.ar      1 <0>        -0.1264
     16 N2         -0.7406   -7.2297   -1.4617 N.2       1 <0>        -0.2278
     17 N3         -0.3994   -8.3395   -0.9027 N.pl3     1 <0>        -0.2462
     18 N4          0.2445   -8.1643    0.1989 N.2       1 <0>        -0.3215
     19 C13         0.3620   -6.8697    0.4258 C.ar      1 <0>         0.2652
     20 N5          0.9051   -6.0766    1.3584 N.ar      1 <0>        -0.5901
     21 H1          1.0039    1.9031    0.0027 H         1 <0>         0.0523
     22 H2         -0.5459    1.8868   -0.8726 H         1 <0>         0.0600
     23 H3         -0.5289    1.8773    0.9072 H         1 <0>         0.0523
     24 H4         -1.0205   -0.3814    0.0098 H         1 <0>         0.0764
     25 H5          0.5123   -0.3556   -0.8948 H         1 <0>         0.0765
     26 H6          1.7647   -0.1336    1.2338 H         1 <0>         0.0531
     27 H7          0.2319   -0.1594    2.1383 H         1 <0>         0.0530
     28 H8          1.9151   -0.7204    3.2430 H         1 <0>         0.1254
     29 H9          3.0433   -1.8327    5.1223 H         1 <0>         0.1184
     30 H10         3.1558   -4.2876    5.2246 H         1 <0>         0.1211
     31 H11         2.1408   -5.6480    3.4470 H         1 <0>         0.1429
     32 H12        -0.6055   -9.2126   -1.2715 H         1 <0>         0.4610
@<TRIPOS>BOND
     1    1    2 1
     2    1   21 1
     3    1   22 1
     4    1   23 1
     5    2    3 1
     6    2   24 1
     7    2   25 1
     8    3    4 1
     9    3   26 1
    10    3   27 1
    11    4    5 1
    12    5   10 ar
    13    5    6 ar
    14    6    7 ar
    15    6   28 1
    16    7    8 ar
    17    7   29 1
    18    8    9 ar
    19    8   30 1
    20    9   10 ar
    21    9   31 1
    22   10   11 1
    23   11   20 ar
    24   11   12 ar
    25   12   13 ar
    26   13   14 1
    27   13   15 ar
    28   15   19 ar
    29   15   16 2
    30   16   17 1
    31   17   18 1
    32   17   32 1
    33   18   19 2
    34   19   20 ar
@<TRIPOS>MOLECULE
ZINC14806781
   37    38     0     0     0
SMALL
USER_CHARGES

@<TRIPOS>ATOM
      1 C1         -0.0187    1.5258    0.0104 C.3       1 <0>        -0.1420
      2 C2          0.0021   -0.0041    0.0020 C.3       1 <0>        -0.1122
      3 C3         -1.4333   -0.5336    0.0129 C.3       1 <0>        -0.1431
      4 C4          0.7182   -0.4975   -1.2568 C.3       1 <0>         0.1227
      5 N1          2.1249   -0.0911   -1.2094 N.am      1 <0>        -0.5056
      6 C5          2.5108    1.1285   -1.7415 C.2       1 <0>         0.3305
      7 C6          3.8506    1.4913   -1.6844 C.2       1 <0>        -0.1524
      8 C7          4.7770    0.6092   -1.0875 C.2       1 <0>         0.5939
      9 O1          5.9569    0.9048   -1.0250 O.2       1 <0>        -0.5120
     10 N2          4.3401   -0.5650   -0.5866 N.am      1 <0>        -0.5516
     11 C8          3.0398   -0.9009   -0.6438 C.2       1 <0>         0.7073
     12 O2          2.6815   -1.9651   -0.1771 O.2       1 <0>        -0.5283
     13 C9          5.2963   -1.4850    0.0342 C.3       1 <0>         0.0828
     14 N3          3.9403    2.7335   -2.2798 N.pl3     1 <0>        -0.4977
     15 H1          4.7463    3.2601   -2.3977 H         1 <0>         0.4422
     16 C10         2.6958    3.0753   -2.6668 C.2       1 <0>         0.2969
     17 N4          1.8568    2.1236   -2.3461 N.2       1 <0>        -0.4859
     18 C11         2.3259    4.3597   -3.3630 C.3       1 <0>         0.1403
     19 O3          3.4980    5.1560   -3.5478 O.3       1 <0>        -0.3994
     20 C12         3.2562    6.4028   -4.2029 C.3       1 <0>         0.0354
     21 H2          1.0039    1.9031    0.0027 H         1 <0>         0.0473
     22 H3         -0.5459    1.8868   -0.8726 H         1 <0>         0.0649
     23 H4         -0.5289    1.8773    0.9072 H         1 <0>         0.0534
     24 H5          0.5293   -0.3651    0.8851 H         1 <0>         0.0747
     25 H6         -1.9605   -0.1726   -0.8702 H         1 <0>         0.0594
     26 H7         -1.4185   -1.6235    0.0069 H         1 <0>         0.0592
     27 H8         -1.9435   -0.1821    0.9097 H         1 <0>         0.0612
     28 H9          0.6556   -1.5845   -1.3079 H         1 <0>         0.1009
     29 H10         0.2444   -0.0644   -2.1377 H         1 <0>         0.0998
     30 H11         6.2954   -1.0508   -0.0037 H         1 <0>         0.1036
     31 H12         5.0138   -1.6563    1.0730 H         1 <0>         0.0826
     32 H13         5.2912   -2.4325   -0.5046 H         1 <0>         0.0829
     33 H14         1.8840    4.1329   -4.3332 H         1 <0>         0.0955
     34 H15         1.6062    4.9081   -2.7552 H         1 <0>         0.0954
     35 H16         2.5558    6.9936   -3.6125 H         1 <0>         0.0510
     36 H17         4.1948    6.9475   -4.3052 H         1 <0>         0.0953
     37 H18         2.8337    6.2184   -5.1906 H         1 <0>         0.0511
@<TRIPOS>BOND
     1    1    2 1
     2    1   21 1
     3    1   22 1
     4    1   23 1
     5    2    3 1
     6    2    4 1
     7    2   24 1
     8    3   25 1
     9    3   26 1
    10    3   27 1
    11    4    5 1
    12    4   28 1
    13    4   29 1
    14    5   11 am
    15    5    6 1
    16    6   17 1
    17    6    7 2
    18    7    8 1
    19    7   14 1
    20    8    9 2
    21    8   10 am
    22   10   11 am
    23   10   13 1
    24   11   12 2
    25   13   30 1
    26   13   31 1
    27   13   32 1
    28   14   15 1
    29   14   16 1
    30   16   17 2
    31   16   18 1
    32   18   19 1
    33   18   33 1
    34   18   34 1
    35   19   20 1
    36   20   35 1
    37   20   36 1
    38   20   37 1
@<TRIPOS>MOLECULE
ZINC04199922
   43    45     0     0     0
SMALL
USER_CHARGES
4-(2-ethoxyphenyl)-9-methyl-7-propyl-3,5,6,8-tetrazabicyclo[4.3.0]nona-4,7,9-trien-2-one
@<TRIPOS>ATOM
      1 C1         -0.0366    1.0992   -2.4903 C.3       1 <0>        -0.1513
      2 C2         -0.7527    1.5927   -1.2315 C.3       1 <0>        -0.1161
      3 C3         -0.0127    1.0858    0.0080 C.3       1 <0>        -0.0374
      4 C4         -0.7181    1.5718    1.2479 C.2       1 <0>         0.2916
      5 N1         -1.6792    0.9333    1.8731 N.2       1 <0>        -0.4782
      6 C5         -2.0791    1.6416    2.9301 C.2       1 <0>         0.1312
      7 C6         -1.3236    2.7873    2.9653 C.2       1 <0>        -0.1680
      8 N2         -0.4575    2.7212    1.8873 N.pl3     1 <0>        -0.2802
      9 N3          0.4363    3.7734    1.6691 N.2       1 <0>        -0.2699
     10 C7          0.4733    4.8020    2.4664 C.2       1 <0>         0.4200
     11 N4         -0.3605    4.9215    3.5598 N.am      1 <0>        -0.6726
     12 H1         -0.2981    5.7294    4.1457 H         1 <0>         0.4275
     13 C8         -1.2610    3.9540    3.8443 C.2       1 <0>         0.6004
     14 O1         -2.0005    4.0519    4.8066 O.2       1 <0>        -0.4912
     15 C9          1.4435    5.8816    2.1903 C.ar      1 <0>        -0.1102
     16 C10         1.5078    6.9976    3.0258 C.ar      1 <0>        -0.0467
     17 C11         2.4158    8.0018    2.7633 C.ar      1 <0>        -0.1566
     18 C12         3.2647    7.9078    1.6735 C.ar      1 <0>        -0.0434
     19 C13         3.2106    6.8080    0.8391 C.ar      1 <0>        -0.2141
     20 C14         2.3074    5.7877    1.0922 C.ar      1 <0>         0.1915
     21 O2          2.2572    4.7037    0.2762 O.3       1 <0>        -0.2774
     22 C15         3.1688    4.6771   -0.8240 C.3       1 <0>         0.0476
     23 C16         2.9655    3.3888   -1.6238 C.3       1 <0>        -0.1528
     24 C17        -3.1605    1.2552    3.9061 C.3       1 <0>        -0.0779
     25 H2          0.9860    1.4765   -2.4981 H         1 <0>         0.0571
     26 H3         -0.0218    0.0093   -2.4963 H         1 <0>         0.0585
     27 H4         -0.5637    1.4603   -3.3734 H         1 <0>         0.0579
     28 H5         -1.7753    1.2154   -1.2238 H         1 <0>         0.0691
     29 H6         -0.7675    2.6825   -1.2255 H         1 <0>         0.0624
     30 H7          0.0021   -0.0041    0.0020 H         1 <0>         0.0997
     31 H8          1.0099    1.4631    0.0003 H         1 <0>         0.0905
     32 H9          0.8471    7.0749    3.8766 H         1 <0>         0.1334
     33 H10         2.4651    8.8649    3.4105 H         1 <0>         0.1379
     34 H11         3.9732    8.6983    1.4749 H         1 <0>         0.1359
     35 H12         3.8756    6.7415   -0.0093 H         1 <0>         0.1401
     36 H13         2.9862    5.5373   -1.4680 H         1 <0>         0.0650
     37 H14         4.1917    4.7145   -0.4492 H         1 <0>         0.0648
     38 H15         3.1481    2.5286   -0.9798 H         1 <0>         0.0677
     39 H16         1.9426    3.3514   -1.9985 H         1 <0>         0.0702
     40 H17         3.6608    3.3685   -2.4630 H         1 <0>         0.0797
     41 H18        -2.7235    0.6841    4.7252 H         1 <0>         0.0811
     42 H19        -3.6316    2.1552    4.3014 H         1 <0>         0.0829
     43 H20        -3.9085    0.6470    3.3975 H         1 <0>         0.0806
@<TRIPOS>BOND
     1    1    2 1
     2    1   25 1
     3    1   26 1
     4    1   27 1
     5    2    3 1
     6    2   28 1
     7    2   29 1
     8    3    4 1
     9    3   30 1
    10    3   31 1
    11    4    8 1
    12    4    5 2
    13    5    6 1
    14    6    7 2
    15    6   24 1
    16    7   13 1
    17    7    8 1
    18    8    9 1
    19    9   10 2
    20   10   11 1
    21   10   15 1
    22   11   12 1
    23   11   13 am
    24   13   14 2
    25   15   20 ar
    26   15   16 ar
    27   16   17 ar
    28   16   32 1
    29   17   18 ar
    30   17   33 1
    31   18   19 ar
    32   18   34 1
    33   19   20 ar
    34   19   35 1
    35   20   21 1
    36   21   22 1
    37   22   23 1
    38   22   36 1
    39   22   37 1
    40   23   38 1
    41   23   39 1
    42   23   40 1
    43   24   41 1
    44   24   42 1
    45   24   43 1
@<TRIPOS>MOLECULE
ZINC00004982
   41    43     0     0     0
SMALL
USER_CHARGES

@<TRIPOS>ATOM
      1 C1          0.5684    1.3813    0.2968 C.3       1 <0>         0.0255
      2 O1          0.3927   -0.0330    0.1934 O.3       1 <0>        -0.3057
      3 C2          0.7874   -0.6210   -0.9677 C.ar      1 <0>         0.0999
      4 C3          1.3368    0.1460   -1.9826 C.ar      1 <0>        -0.1683
      5 C4          1.7379   -0.4533   -3.1620 C.ar      1 <0>        -0.1118
      6 C5          1.5917   -1.8175   -3.3324 C.ar      1 <0>        -0.0754
      7 C6          1.0438   -2.5883   -2.3241 C.ar      1 <0>        -0.1639
      8 C7          0.6455   -1.9949   -1.1370 C.ar      1 <0>         0.1082
      9 O2          0.1119   -2.7526   -0.1417 O.3       1 <0>        -0.2957
     10 C8          0.1029   -4.1681   -0.3377 C.3       1 <0>         0.0783
     11 C9         -1.1687   -4.5874   -1.1040 C.3       1 <0>        -0.1488
     12 C10        -1.5683   -5.9405   -0.4650 C.3       1 <0>        -0.1241
     13 C11        -1.2445   -5.7198    1.0335 C.3       1 <0>        -0.1241
     14 C12         0.0547   -4.8881    1.0213 C.3       1 <0>        -0.1219
     15 C13         2.0301   -2.4655   -4.6204 C.3       1 <0>        -0.0563
     16 H1          1.8368   -3.5381   -4.6006 H         1 <0>         0.1000
     17 C14         1.3426   -1.8017   -5.8359 C.3       1 <0>        -0.1504
     18 C15         2.4091   -1.7972   -6.9087 C.2       1 <0>         0.5187
     19 O3          2.2042   -1.6224   -8.0913 O.2       1 <0>        -0.5316
     20 N1          3.6171   -2.0147   -6.3606 N.am      1 <0>        -0.7338
     21 C16         3.5210   -2.1776   -4.9046 C.3       1 <0>         0.1066
     22 H2          1.6254    1.6250    0.1896 H         1 <0>         0.0553
     23 H3         -0.0002    1.8766   -0.4903 H         1 <0>         0.0555
     24 H4          0.2140    1.7213    1.2699 H         1 <0>         0.1015
     25 H5          1.4515    1.2119   -1.8523 H         1 <0>         0.1366
     26 H6          2.1660    0.1456   -3.9522 H         1 <0>         0.1272
     27 H7          0.9304   -3.6537   -2.4598 H         1 <0>         0.1375
     28 H8          0.9909   -4.4738   -0.8910 H         1 <0>         0.0759
     29 H9         -1.9594   -3.8506   -0.9629 H         1 <0>         0.0806
     30 H10        -0.9503   -4.7158   -2.1641 H         1 <0>         0.0710
     31 H11        -2.6315   -6.1352   -0.6059 H         1 <0>         0.0722
     32 H12        -0.9681   -6.7532   -0.8743 H         1 <0>         0.0701
     33 H13        -2.0475   -5.1659    1.5198 H         1 <0>         0.0703
     34 H14        -1.0814   -6.6747    1.5332 H         1 <0>         0.0710
     35 H15         0.9189   -5.5439    1.1272 H         1 <0>         0.0774
     36 H16         0.0382   -4.1579    1.8303 H         1 <0>         0.0823
     37 H17         0.4823   -2.3897   -6.1557 H         1 <0>         0.1062
     38 H18         1.0407   -0.7827   -5.5939 H         1 <0>         0.1096
     39 H19         4.4459   -2.0590   -6.8626 H         1 <0>         0.4120
     40 H20         3.8309   -1.2616   -4.4015 H         1 <0>         0.0783
     41 H21         4.1362   -3.0155   -4.5767 H         1 <0>         0.0842
@<TRIPOS>BOND
     1    1    2 1
     2    1   22 1
     3    1   23 1
     4    1   24 1
     5    2    3 1
     6    3    8 ar
     7    3    4 ar
     8    4    5 ar
     9    4   25 1
    10    5    6 ar
    11    5   26 1
    12    6    7 ar
    13    6   15 1
    14    7    8 ar
    15    7   27 1
    16    8    9 1
    17    9   10 1
    18   10   14 1
    19   10   11 1
    20   10   28 1
    21   11   12 1
    22   11   29 1
    23   11   30 1
    24   12   13 1
    25   12   31 1
    26   12   32 1
    27   13   14 1
    28   13   33 1
    29   13   34 1
    30   14   35 1
    31   14   36 1
    32   15   16 1
    33   15   21 1
    34   15   17 1
    35   17   18 1
    36   17   37 1
    37   17   38 1
    38   18   19 2
    39   18   20 am
    40   20   21 1
    41   20   39 1
    42   21   40 1
    43   21   41 1
@<TRIPOS>MOLECULE
ZINC02000919
   41    43     0     0     0
SMALL
USER_CHARGES

@<TRIPOS>ATOM
      1 C1          0.5684    1.3813    0.2968 C.3       1 <0>         0.0255
      2 O1          0.3927   -0.0330    0.1934 O.3       1 <0>        -0.3057
      3 C2          0.7874   -0.6210   -0.9677 C.ar      1 <0>         0.0999
      4 C3          1.3368    0.1460   -1.9826 C.ar      1 <0>        -0.1683
      5 C4          1.7379   -0.4533   -3.1620 C.ar      1 <0>        -0.1118
      6 C5          1.5917   -1.8175   -3.3324 C.ar      1 <0>        -0.0754
      7 C6          1.0438   -2.5883   -2.3241 C.ar      1 <0>        -0.1640
      8 C7          0.6455   -1.9949   -1.1370 C.ar      1 <0>         0.1082
      9 O2          0.1119   -2.7526   -0.1417 O.3       1 <0>        -0.2956
     10 C8          0.1029   -4.1681   -0.3377 C.3       1 <0>         0.0781
     11 C9         -1.1687   -4.5874   -1.1040 C.3       1 <0>        -0.1484
     12 C10        -1.5683   -5.9405   -0.4650 C.3       1 <0>        -0.1242
     13 C11        -1.2445   -5.7198    1.0335 C.3       1 <0>        -0.1240
     14 C12         0.0547   -4.8881    1.0213 C.3       1 <0>        -0.1221
     15 C13         2.0301   -2.4655   -4.6204 C.3       1 <0>        -0.0563
     16 H1          1.8596   -3.5417   -4.5910 H         1 <0>         0.1000
     17 C14         3.5130   -2.1483   -4.9227 C.3       1 <0>        -0.1506
     18 C15         3.5576   -1.9806   -6.4255 C.2       1 <0>         0.5187
     19 O3          4.5674   -2.0006   -7.0970 O.2       1 <0>        -0.5316
     20 N1          2.3152   -1.8068   -6.9084 N.am      1 <0>        -0.7338
     21 C16         1.3168   -1.8256   -5.8320 C.3       1 <0>         0.1067
     22 H2          1.6254    1.6250    0.1896 H         1 <0>         0.0555
     23 H3         -0.0002    1.8766   -0.4903 H         1 <0>         0.0553
     24 H4          0.2140    1.7213    1.2699 H         1 <0>         0.1015
     25 H5          1.4515    1.2119   -1.8523 H         1 <0>         0.1366
     26 H6          2.1660    0.1456   -3.9522 H         1 <0>         0.1272
     27 H7          0.9304   -3.6537   -2.4598 H         1 <0>         0.1374
     28 H8          0.9909   -4.4738   -0.8910 H         1 <0>         0.0760
     29 H9         -1.9594   -3.8506   -0.9629 H         1 <0>         0.0805
     30 H10        -0.9503   -4.7158   -2.1641 H         1 <0>         0.0708
     31 H11        -2.6315   -6.1352   -0.6059 H         1 <0>         0.0721
     32 H12        -0.9681   -6.7532   -0.8743 H         1 <0>         0.0702
     33 H13        -2.0475   -5.1659    1.5198 H         1 <0>         0.0703
     34 H14        -1.0814   -6.6747    1.5332 H         1 <0>         0.0710
     35 H15         0.9189   -5.5439    1.1272 H         1 <0>         0.0776
     36 H16         0.0382   -4.1579    1.8303 H         1 <0>         0.0823
     37 H17         3.8145   -1.2257   -4.4268 H         1 <0>         0.1096
     38 H18         4.1511   -2.9756   -4.6120 H         1 <0>         0.1061
     39 H19         2.1051   -1.6852   -7.8475 H         1 <0>         0.4120
     40 H20         0.4568   -2.4279   -6.1248 H         1 <0>         0.0843
     41 H21         1.0026   -0.8100   -5.5915 H         1 <0>         0.0783
@<TRIPOS>BOND
     1    1    2 1
     2    1   22 1
     3    1   23 1
     4    1   24 1
     5    2    3 1
     6    3    8 ar
     7    3    4 ar
     8    4    5 ar
     9    4   25 1
    10    5    6 ar
    11    5   26 1
    12    6    7 ar
    13    6   15 1
    14    7    8 ar
    15    7   27 1
    16    8    9 1
    17    9   10 1
    18   10   14 1
    19   10   11 1
    20   10   28 1
    21   11   12 1
    22   11   29 1
    23   11   30 1
    24   12   13 1
    25   12   31 1
    26   12   32 1
    27   13   14 1
    28   13   33 1
    29   13   34 1
    30   14   35 1
    31   14   36 1
    32   15   16 1
    33   15   21 1
    34   15   17 1
    35   17   18 1
    36   17   37 1
    37   17   38 1
    38   18   19 2
    39   18   20 am
    40   20   21 1
    41   20   39 1
    42   21   40 1
    43   21   41 1
