@<TRIPOS>MOLECULE
ZINC19796168
   63    66     0     0     0
SMALL
USER_CHARGES

@<TRIPOS>ATOM
      1 C1         -0.0187    1.5258    0.0104 C.3       1 <0>        -0.1516
      2 C2          0.0021   -0.0041    0.0020 C.3       1 <0>        -0.1160
      3 C3          0.7182   -0.4975   -1.2568 C.3       1 <0>        -0.0368
      4 C4          0.7386   -2.0043   -1.2651 C.2       1 <0>         0.1083
      5 C5          1.7436   -2.8145   -0.7017 C.2       1 <0>         0.0436
      6 C6          1.3716   -4.1454   -0.9309 C.2       1 <0>        -0.0357
      7 C7          2.2155   -5.1793   -0.4631 C.2       1 <0>         0.5719
      8 O1          1.9272   -6.3498   -0.6430 O.2       1 <0>        -0.5217
      9 N1          3.3497   -4.8379    0.1877 N.am      1 <0>        -0.6330
     10 H1          3.9439   -5.5300    0.5176 H         1 <0>         0.4219
     11 C8          3.6639   -3.5203    0.3833 C.2       1 <0>         0.3994
     12 N2          2.8908   -2.5515   -0.0437 N.2       1 <0>        -0.4298
     13 C9          4.9101   -3.1798    1.0980 C.ar      1 <0>        -0.1126
     14 C10         5.7536   -4.1922    1.5597 C.ar      1 <0>         0.0399
     15 C11         6.9158   -3.8678    2.2265 C.ar      1 <0>        -0.7185
     16 C12         7.2508   -2.5412    2.4411 C.ar      1 <0>         0.0430
     17 C13         6.4250   -1.5305    1.9894 C.ar      1 <0>        -0.2315
     18 C14         5.2556   -1.8391    1.3116 C.ar      1 <0>         0.2415
     19 O2          4.4461   -0.8467    0.8623 O.3       1 <0>        -0.2578
     20 C15         4.8632    0.4961    1.1168 C.3       1 <0>         0.0414
     21 C16         3.8319    1.4685    0.5407 C.3       1 <0>        -0.1519
     22 S1          7.9793   -5.1464    2.8085 S.o2      1 <0>         2.6926
     23 O3          8.7312   -4.5930    3.8798 O.2       1 <0>        -0.9482
     24 O4          7.1730   -6.3063    2.9631 O.2       1 <0>        -0.9501
     25 N3          9.0568   -5.4772    1.5953 N.pl3     1 <0>        -0.9979
     26 C17         8.7556   -6.4921    0.5742 C.3       1 <0>         0.1239
     27 C18         8.9742   -5.8704   -0.8093 C.3       1 <0>         0.0382
     28 N4         10.3268   -5.3015   -0.8788 N.3       1 <0>        -0.5395
     29 C19        10.4964   -4.2104    0.0900 C.3       1 <0>         0.0386
     30 C20        10.3376   -4.7598    1.5068 C.3       1 <0>         0.1243
     31 C21        10.6381   -4.8489   -2.2412 C.3       1 <0>         0.0245
     32 N5          0.1842   -4.1164   -1.6082 N.pl3     1 <0>        -0.3299
     33 N6         -0.1751   -2.7746   -1.7907 N.2       1 <0>        -0.2328
     34 C22        -0.5794   -5.2824   -2.0596 C.3       1 <0>         0.0994
     35 H2          1.0039    1.9031    0.0027 H         1 <0>         0.0577
     36 H3         -0.5459    1.8868   -0.8726 H         1 <0>         0.0559
     37 H4         -0.5289    1.8773    0.9072 H         1 <0>         0.0565
     38 H5          0.5293   -0.3651    0.8851 H         1 <0>         0.0665
     39 H6         -1.0205   -0.3814    0.0098 H         1 <0>         0.0628
     40 H7          0.1910   -0.1364   -2.1398 H         1 <0>         0.0831
     41 H8          1.7408   -0.1202   -1.2645 H         1 <0>         0.0935
     42 H9          5.4957   -5.2279    1.3950 H         1 <0>         0.1438
     43 H10         8.1628   -2.2958    2.9650 H         1 <0>         0.1492
     44 H11         6.6926   -0.4983    2.1608 H         1 <0>         0.1488
     45 H12         4.9489    0.6524    2.1922 H         1 <0>         0.0678
     46 H13         5.8306    0.6715    0.6460 H         1 <0>         0.0666
     47 H14         3.7463    1.3123   -0.5346 H         1 <0>         0.0692
     48 H15         2.8646    1.2931    1.0115 H         1 <0>         0.0720
     49 H16         4.1502    2.4927    0.7349 H         1 <0>         0.0796
     50 H17         9.4199   -7.3470    0.7005 H         1 <0>         0.0879
     51 H18         7.7185   -6.8131    0.6717 H         1 <0>         0.0935
     52 H19         8.8627   -6.6382   -1.5748 H         1 <0>         0.0901
     53 H20         8.2393   -5.0824   -0.9741 H         1 <0>         0.0394
     54 H21        11.4890   -3.7744   -0.0233 H         1 <0>         0.0905
     55 H22         9.7403   -3.4456   -0.0874 H         1 <0>         0.0393
     56 H23        10.3460   -3.9360    2.2206 H         1 <0>         0.0948
     57 H24        11.1569   -5.4449    1.7245 H         1 <0>         0.0867
     58 H25         9.9216   -4.0848   -2.5429 H         1 <0>         0.0257
     59 H26        11.6450   -4.4322   -2.2645 H         1 <0>         0.0713
     60 H27        10.5786   -5.6939   -2.9273 H         1 <0>         0.0713
     61 H28        -1.2781   -5.5834   -1.2791 H         1 <0>         0.0824
     62 H29        -1.1323   -5.0268   -2.9634 H         1 <0>         0.0965
     63 H30         0.1042   -6.1043   -2.2721 H         1 <0>         0.1003
@<TRIPOS>BOND
     1    1    2 1
     2    1   35 1
     3    1   36 1
     4    1   37 1
     5    2    3 1
     6    2   38 1
     7    2   39 1
     8    3    4 1
     9    3   40 1
    10    3   41 1
    11    4   33 2
    12    4    5 1
    13    5   12 1
    14    5    6 2
    15    6    7 1
    16    6   32 1
    17    7    8 2
    18    7    9 am
    19    9   10 1
    20    9   11 1
    21   11   12 2
    22   11   13 1
    23   13   18 ar
    24   13   14 ar
    25   14   15 ar
    26   14   42 1
    27   15   16 ar
    28   15   22 1
    29   16   17 ar
    30   16   43 1
    31   17   18 ar
    32   17   44 1
    33   18   19 1
    34   19   20 1
    35   20   21 1
    36   20   45 1
    37   20   46 1
    38   21   47 1
    39   21   48 1
    40   21   49 1
    41   22   23 2
    42   22   24 2
    43   22   25 1
    44   25   30 1
    45   25   26 1
    46   26   27 1
    47   26   50 1
    48   26   51 1
    49   27   28 1
    50   27   52 1
    51   27   53 1
    52   28   29 1
    53   28   31 1
    54   29   30 1
    55   29   54 1
    56   29   55 1
    57   30   56 1
    58   30   57 1
    59   31   58 1
    60   31   59 1
    61   31   60 1
    62   32   33 1
    63   32   34 1
    64   34   61 1
    65   34   62 1
    66   34   63 1
@<TRIPOS>MOLECULE
ZINC19796168
   63    66     0     0     0
SMALL
USER_CHARGES

@<TRIPOS>ATOM
      1 C1         -0.0187    1.5258    0.0104 C.3       1 <0>        -0.1539
      2 C2          0.0021   -0.0041    0.0020 C.3       1 <0>        -0.1188
      3 C3          0.7182   -0.4975   -1.2568 C.3       1 <0>        -0.0455
      4 C4          0.7386   -2.0043   -1.2651 C.2       1 <0>         0.0795
      5 C5          1.7371   -2.8090   -0.7054 C.2       1 <0>         0.0226
      6 C6          1.3740   -4.1350   -0.9304 C.2       1 <0>        -0.0270
      7 C7          2.2608   -5.1909   -0.4384 C.2       1 <0>         0.5560
      8 O1          1.9844   -6.3672   -0.6123 O.2       1 <0>        -0.4907
      9 N1          3.3842   -4.8398    0.2075 N.2       1 <0>        -0.5489
     10 C8          3.6977   -3.5767    0.4033 C.2       1 <0>         0.4949
     11 N2          2.9154   -2.5523   -0.0295 N.pl3     1 <0>        -0.5912
     12 C9          4.9471   -3.2598    1.1207 C.ar      1 <0>        -0.1387
     13 C10         5.3072   -1.9297    1.3507 C.ar      1 <0>         0.0502
     14 C11         6.4754   -1.6404    2.0219 C.ar      1 <0>        -0.7241
     15 C12         7.2958   -2.6630    2.4697 C.ar      1 <0>         0.0516
     16 C13         6.9520   -3.9820    2.2486 C.ar      1 <0>        -0.2347
     17 C14         5.7769   -4.2915    1.5805 C.ar      1 <0>         0.2542
     18 O2          5.4349   -5.5872    1.3679 O.3       1 <0>        -0.2513
     19 C15         6.3296   -6.5843    1.8652 C.3       1 <0>         0.0415
     20 C16         5.7806   -7.9733    1.5332 C.3       1 <0>        -0.1498
     21 S1          6.9282    0.0377    2.3112 S.o2      1 <0>         2.6935
     22 O3          8.3389    0.0542    2.4813 O.2       1 <0>        -0.9470
     23 O4          6.2716    0.8126    1.3174 O.2       1 <0>        -0.9501
     24 N3          6.2708    0.4783    3.7659 N.pl3     1 <0>        -0.9978
     25 C17         4.9211    1.0580    3.8397 C.3       1 <0>         0.1243
     26 C18         4.1139    0.2804    4.8848 C.3       1 <0>         0.0380
     27 N4          4.8523    0.2619    6.1546 N.3       1 <0>        -0.5392
     28 C19         6.1314   -0.4472    6.0169 C.3       1 <0>         0.0382
     29 C20         7.0189    0.2948    5.0189 C.3       1 <0>         0.1242
     30 C21         4.0386   -0.3238    7.2283 C.3       1 <0>         0.0243
     31 N5          0.1890   -4.1166   -1.6070 N.pl3     1 <0>        -0.3265
     32 N6         -0.1769   -2.7759   -1.7917 N.2       1 <0>        -0.2363
     33 C22        -0.5677   -5.2881   -2.0556 C.3       1 <0>         0.1018
     34 H1          1.0039    1.9031    0.0027 H         1 <0>         0.0587
     35 H2         -0.5459    1.8868   -0.8726 H         1 <0>         0.0584
     36 H3         -0.5289    1.8773    0.9072 H         1 <0>         0.0590
     37 H4          0.5293   -0.3651    0.8851 H         1 <0>         0.0617
     38 H5         -1.0205   -0.3814    0.0098 H         1 <0>         0.0685
     39 H6          0.1910   -0.1364   -2.1398 H         1 <0>         0.0924
     40 H7          1.7408   -0.1202   -1.2645 H         1 <0>         0.0851
     41 H8          4.6710   -1.1293    1.0027 H         1 <0>         0.1448
     42 H9          8.2097   -2.4272    2.9946 H         1 <0>         0.1511
     43 H10         7.5970   -4.7736    2.6002 H         1 <0>         0.1511
     44 H11         7.3075   -6.4595    1.4002 H         1 <0>         0.0690
     45 H12         6.4252   -6.4802    2.9460 H         1 <0>         0.0679
     46 H13         6.4630   -8.7339    1.9125 H         1 <0>         0.0796
     47 H14         4.8027   -8.0982    1.9981 H         1 <0>         0.0699
     48 H15         5.6850   -8.0774    0.4524 H         1 <0>         0.0705
     49 H16         4.9880    2.1054    4.1338 H         1 <0>         0.0882
     50 H17         4.4346    0.9780    2.8676 H         1 <0>         0.0929
     51 H18         3.1485    0.7644    5.0325 H         1 <0>         0.0901
     52 H19         3.9598   -0.7416    4.5387 H         1 <0>         0.0392
     53 H20         6.6291   -0.4910    6.9857 H         1 <0>         0.0908
     54 H21         5.9492   -1.4591    5.6551 H         1 <0>         0.0394
     55 H22         7.9186   -0.2894    4.8260 H         1 <0>         0.0949
     56 H23         7.2913    1.2675    5.4285 H         1 <0>         0.0873
     57 H24         3.7712   -1.3470    6.9645 H         1 <0>         0.0259
     58 H25         4.6091   -0.3253    8.1570 H         1 <0>         0.0715
     59 H26         3.1316    0.2663    7.3599 H         1 <0>         0.0715
     60 H27        -1.2651   -5.5910   -1.2745 H         1 <0>         0.0826
     61 H28        -1.1218   -5.0381   -2.9604 H         1 <0>         0.0959
     62 H29         0.1207   -6.1067   -2.2656 H         1 <0>         0.1018
     63 H30         3.1857   -1.6357    0.1370 H         1 <0>         0.4171
@<TRIPOS>BOND
     1    1    2 1
     2    1   34 1
     3    1   35 1
     4    1   36 1
     5    2    3 1
     6    2   37 1
     7    2   38 1
     8    3    4 1
     9    3   39 1
    10    3   40 1
    11    4   32 2
    12    4    5 1
    13    5   11 1
    14    5    6 2
    15    6    7 1
    16    6   31 1
    17    7    8 2
    18    7    9 1
    19    9   10 2
    20   10   11 1
    21   10   12 1
    22   11   63 1
    23   12   17 ar
    24   12   13 ar
    25   13   14 ar
    26   13   41 1
    27   14   15 ar
    28   14   21 1
    29   15   16 ar
    30   15   42 1
    31   16   17 ar
    32   16   43 1
    33   17   18 1
    34   18   19 1
    35   19   20 1
    36   19   44 1
    37   19   45 1
    38   20   46 1
    39   20   47 1
    40   20   48 1
    41   21   22 2
    42   21   23 2
    43   21   24 1
    44   24   29 1
    45   24   25 1
    46   25   26 1
    47   25   49 1
    48   25   50 1
    49   26   27 1
    50   26   51 1
    51   26   52 1
    52   27   28 1
    53   27   30 1
    54   28   29 1
    55   28   53 1
    56   28   54 1
    57   29   55 1
    58   29   56 1
    59   30   57 1
    60   30   58 1
    61   30   59 1
    62   31   32 1
    63   31   33 1
    64   33   60 1
    65   33   61 1
    66   33   62 1
@<TRIPOS>MOLECULE
ZINC19796168
   62    65     0     0     0
SMALL
USER_CHARGES

@<TRIPOS>ATOM
      1 C1         -0.0187    1.5258    0.0104 C.3       1 <0>        -0.1485
      2 C2          0.0021   -0.0041    0.0020 C.3       1 <0>        -0.1148
      3 C3         -1.4333   -0.5336    0.0129 C.3       1 <0>        -0.0265
      4 C4         -1.4129   -2.0405    0.0046 C.2       1 <0>         0.0755
      5 C5         -1.4070   -2.8569   -1.1475 C.ar      1 <0>         0.0668
      6 C6         -1.3869   -4.1920   -0.7014 C.ar      1 <0>        -0.0515
      7 C7         -1.3777   -5.2165   -1.6565 C.ar      1 <0>         0.4648
      8 O1         -1.3588   -6.5164   -1.2751 O.3       1 <0>        -0.6909
      9 N1         -1.3884   -4.8893   -2.9402 N.ar      1 <0>        -0.5725
     10 C8         -1.4074   -3.6162   -3.3266 C.ar      1 <0>         0.3612
     11 N2         -1.4163   -2.6161   -2.4630 N.ar      1 <0>        -0.5554
     12 C9         -1.4186   -3.3091   -4.7764 C.ar      1 <0>        -0.0636
     13 C10        -1.4328   -1.9850   -5.2116 C.ar      1 <0>         0.0543
     14 C11        -1.4432   -1.7045   -6.5622 C.ar      1 <0>        -0.7317
     15 C12        -1.4396   -2.7334   -7.4883 C.ar      1 <0>         0.0205
     16 C13        -1.4256   -4.0494   -7.0685 C.ar      1 <0>        -0.2451
     17 C14        -1.4092   -4.3463   -5.7145 C.ar      1 <0>         0.2216
     18 O2         -1.3897   -5.6394   -5.3005 O.3       1 <0>        -0.2427
     19 C15        -1.3811   -6.6454   -6.3153 C.3       1 <0>         0.0442
     20 C16        -1.3591   -8.0288   -5.6620 C.3       1 <0>        -0.1464
     21 S1         -1.4617   -0.0302   -7.1108 S.o2      1 <0>         2.6962
     22 O3         -2.0201   -0.0370   -8.4174 O.2       1 <0>        -0.9629
     23 O4         -2.0135    0.7385   -6.0505 O.2       1 <0>        -0.9522
     24 N3          0.1150    0.4496   -7.2724 N.pl3     1 <0>        -1.0004
     25 C17         0.8390    1.0557   -6.1447 C.3       1 <0>         0.1268
     26 C18         2.1670    0.3130   -5.9632 C.3       1 <0>         0.0372
     27 N4          2.8976    0.3041   -7.2376 N.3       1 <0>        -0.5398
     28 C19         2.1569   -0.4314   -8.2713 C.3       1 <0>         0.0376
     29 C20         0.8304    0.2753   -8.5456 C.3       1 <0>         0.1276
     30 C21         4.2487   -0.2463   -7.0660 C.3       1 <0>         0.0248
     31 N5         -1.3812   -4.1504    0.6672 N.pl3     1 <0>        -0.3678
     32 N6         -1.3920   -2.8055    1.0596 N.2       1 <0>        -0.2631
     33 C22        -1.3618   -5.3088    1.5638 C.3       1 <0>         0.1224
     34 H1          1.0039    1.9031    0.0027 H         1 <0>         0.0507
     35 H2         -0.5459    1.8868   -0.8726 H         1 <0>         0.0575
     36 H3         -0.5289    1.8773    0.9072 H         1 <0>         0.0512
     37 H4          0.5123   -0.3556   -0.8948 H         1 <0>         0.0656
     38 H5          0.5293   -0.3651    0.8851 H         1 <0>         0.0578
     39 H6         -1.9435   -0.1821    0.9097 H         1 <0>         0.0708
     40 H7         -1.9605   -0.1726   -0.8702 H         1 <0>         0.0861
     41 H8         -1.4360   -1.1795   -4.4922 H         1 <0>         0.1566
     42 H9         -1.4482   -2.5062   -8.5441 H         1 <0>         0.1359
     43 H10        -1.4233   -4.8477   -7.7959 H         1 <0>         0.1361
     44 H11        -2.2755   -6.5484   -6.9307 H         1 <0>         0.0581
     45 H12        -0.4957   -6.5243   -6.9395 H         1 <0>         0.0570
     46 H13        -1.3526   -8.7961   -6.4360 H         1 <0>         0.0694
     47 H14        -0.4647   -8.1258   -5.0466 H         1 <0>         0.0690
     48 H15        -2.2445   -8.1499   -5.0378 H         1 <0>         0.0696
     49 H16         1.0335    2.1070   -6.3571 H         1 <0>         0.0814
     50 H17         0.2427    0.9670   -5.2366 H         1 <0>         0.0979
     51 H18         2.7652    0.8176   -5.2045 H         1 <0>         0.0879
     52 H19         1.9704   -0.7122   -5.6495 H         1 <0>         0.0449
     53 H20         2.7478   -0.4666   -9.1865 H         1 <0>         0.0858
     54 H21         1.9605   -1.4462   -7.9254 H         1 <0>         0.0417
     55 H22         0.2284   -0.3292   -9.2240 H         1 <0>         0.0922
     56 H23         1.0240    1.2501   -8.9932 H         1 <0>         0.0807
     57 H24         4.1801   -1.2690   -6.6954 H         1 <0>         0.0264
     58 H25         4.7675   -0.2413   -8.0246 H         1 <0>         0.0675
     59 H26         4.8011    0.3631   -6.3508 H         1 <0>         0.0692
     60 H27        -0.3294   -5.5825    1.7815 H         1 <0>         0.0592
     61 H28        -1.8748   -5.0582    2.4923 H         1 <0>         0.0722
     62 H29        -1.8667   -6.1476    1.0847 H         1 <0>         0.0961
@<TRIPOS>BOND
     1    1    2 1
     2    1   34 1
     3    1   35 1
     4    1   36 1
     5    2    3 1
     6    2   37 1
     7    2   38 1
     8    3    4 1
     9    3   39 1
    10    3   40 1
    11    4   32 2
    12    4    5 1
    13    5   11 ar
    14    5    6 ar
    15    6    7 ar
    16    6   31 1
    17    7    8 1
    18    7    9 ar
    19    9   10 ar
    20   10   11 ar
    21   10   12 1
    22   12   17 ar
    23   12   13 ar
    24   13   14 ar
    25   13   41 1
    26   14   15 ar
    27   14   21 1
    28   15   16 ar
    29   15   42 1
    30   16   17 ar
    31   16   43 1
    32   17   18 1
    33   18   19 1
    34   19   20 1
    35   19   44 1
    36   19   45 1
    37   20   46 1
    38   20   47 1
    39   20   48 1
    40   21   22 2
    41   21   23 2
    42   21   24 1
    43   24   29 1
    44   24   25 1
    45   25   26 1
    46   25   49 1
    47   25   50 1
    48   26   27 1
    49   26   51 1
    50   26   52 1
    51   27   28 1
    52   27   30 1
    53   28   29 1
    54   28   53 1
    55   28   54 1
    56   29   55 1
    57   29   56 1
    58   30   57 1
    59   30   58 1
    60   30   59 1
    61   31   32 1
    62   31   33 1
    63   33   60 1
    64   33   61 1
    65   33   62 1
@<TRIPOS>MOLECULE
ZINC19796168
   64    67     0     0     0
SMALL
USER_CHARGES

@<TRIPOS>ATOM
      1 C1         -0.0187    1.5258    0.0104 C.3       1 <0>        -0.1524
      2 C2          0.0021   -0.0041    0.0020 C.3       1 <0>        -0.1163
      3 C3         -1.4333   -0.5336    0.0129 C.3       1 <0>        -0.0382
      4 C4         -1.4129   -2.0405    0.0046 C.2       1 <0>         0.1125
      5 C5         -1.4070   -2.8548   -1.1446 C.2       1 <0>         0.0358
      6 C6         -1.3861   -4.1841   -0.7032 C.2       1 <0>        -0.0303
      7 C7         -1.3769   -5.2214   -1.6643 C.2       1 <0>         0.5721
      8 O1         -1.3591   -6.3907   -1.3206 O.2       1 <0>        -0.5177
      9 N1         -1.3887   -4.8848   -2.9731 N.am      1 <0>        -0.6346
     10 H1         -1.3827   -5.5793   -3.6502 H         1 <0>         0.4185
     11 C8         -1.4095   -3.5686   -3.3476 C.2       1 <0>         0.3827
     12 N2         -1.4171   -2.5966   -2.4679 N.2       1 <0>        -0.4195
     13 C9         -1.4219   -3.2333   -4.7854 C.ar      1 <0>        -0.1025
     14 C10        -1.4183   -4.2493   -5.7432 C.ar      1 <0>         0.0333
     15 C11        -1.4299   -3.9298   -7.0842 C.ar      1 <0>        -0.7276
     16 C12        -1.4448   -2.6046   -7.4863 C.ar      1 <0>         0.0370
     17 C13        -1.4485   -1.5903   -6.5488 C.ar      1 <0>        -0.2285
     18 C14        -1.4433   -1.8942   -5.1961 C.ar      1 <0>         0.2470
     19 O2         -1.4527   -0.8984   -4.2738 O.3       1 <0>        -0.2539
     20 C15        -1.4745    0.4426   -4.7671 C.3       1 <0>         0.0414
     21 C16        -1.4823    1.4191   -3.5893 C.3       1 <0>        -0.1545
     22 S1         -1.4253   -5.2129   -8.2917 S.o2      1 <0>         2.6914
     23 O3         -0.8874   -4.6500   -9.4805 O.2       1 <0>        -0.9316
     24 O4         -0.8594   -6.3568   -7.6667 O.2       1 <0>        -0.9334
     25 N3         -3.0059   -5.5847   -8.6172 N.pl3     1 <0>        -1.0127
     26 C17        -3.7155   -6.6148   -7.8430 C.3       1 <0>         0.0947
     27 C18        -5.0462   -6.0287   -7.3599 C.3       1 <0>        -0.0248
     28 N4         -5.7976   -5.5098   -8.5098 N.4       1 <0>        -0.3832
     29 C19        -5.0699   -4.3889   -9.1182 C.3       1 <0>        -0.0235
     30 C20        -3.7420   -4.8899   -9.6846 C.3       1 <0>         0.0949
     31 C21        -7.1182   -5.0483   -8.0616 C.3       1 <0>        -0.0476
     32 N5         -1.3799   -4.1501    0.6637 N.pl3     1 <0>        -0.3251
     33 N6         -1.3920   -2.8068    1.0614 N.2       1 <0>        -0.2289
     34 C22        -1.3598   -5.3128    1.5547 C.3       1 <0>         0.0963
     35 H2          1.0039    1.9031    0.0027 H         1 <0>         0.0582
     36 H3         -0.5459    1.8868   -0.8726 H         1 <0>         0.0570
     37 H4         -0.5289    1.8773    0.9072 H         1 <0>         0.0575
     38 H5          0.5123   -0.3556   -0.8948 H         1 <0>         0.0655
     39 H6          0.5293   -0.3651    0.8851 H         1 <0>         0.0644
     40 H7         -1.9435   -0.1821    0.9097 H         1 <0>         0.0854
     41 H8         -1.9605   -0.1726   -0.8702 H         1 <0>         0.0931
     42 H9         -1.4060   -5.2840   -5.4339 H         1 <0>         0.1444
     43 H10        -1.4531   -2.3629   -8.5389 H         1 <0>         0.1495
     44 H11        -1.4598   -0.5592   -6.8698 H         1 <0>         0.1518
     45 H12        -0.5902    0.6189   -5.3794 H         1 <0>         0.0706
     46 H13        -2.3699    0.5934   -5.3701 H         1 <0>         0.0677
     47 H14        -1.4990    2.4420   -3.9655 H         1 <0>         0.0830
     48 H15        -2.3667    1.2428   -2.9770 H         1 <0>         0.0703
     49 H16        -0.5869    1.2683   -2.9863 H         1 <0>         0.0743
     50 H17        -3.9053   -7.4822   -8.4752 H         1 <0>         0.1071
     51 H18        -3.1115   -6.9087   -6.9845 H         1 <0>         0.1349
     52 H19        -5.6284   -6.8070   -6.8666 H         1 <0>         0.1469
     53 H20        -4.8527   -5.2186   -6.6568 H         1 <0>         0.1345
     54 H21        -5.6695   -3.9589   -9.9204 H         1 <0>         0.1472
     55 H22        -4.8756   -3.6285   -8.3618 H         1 <0>         0.1345
     56 H23        -3.1556   -4.0439  -10.0432 H         1 <0>         0.1362
     57 H24        -3.9345   -5.5801  -10.5059 H         1 <0>         0.1058
     58 H25        -6.9949   -4.2582   -7.3209 H         1 <0>         0.1220
     59 H26        -7.6771   -4.6629   -8.9144 H         1 <0>         0.1268
     60 H27        -7.6626   -5.8814   -7.6170 H         1 <0>         0.1264
     61 H28        -0.3273   -5.5873    1.7707 H         1 <0>         0.0857
     62 H29        -1.8725   -5.0668    2.4846 H         1 <0>         0.0997
     63 H30        -1.8648   -6.1494    1.0718 H         1 <0>         0.1010
     64 H31        -5.9143   -6.2436   -9.1925 H         1 <0>         0.4277
@<TRIPOS>BOND
     1    1    2 1
     2    1   35 1
     3    1   36 1
     4    1   37 1
     5    2    3 1
     6    2   38 1
     7    2   39 1
     8    3    4 1
     9    3   40 1
    10    3   41 1
    11    4   33 2
    12    4    5 1
    13    5   12 1
    14    5    6 2
    15    6    7 1
    16    6   32 1
    17    7    8 2
    18    7    9 am
    19    9   10 1
    20    9   11 1
    21   11   12 2
    22   11   13 1
    23   13   18 ar
    24   13   14 ar
    25   14   15 ar
    26   14   42 1
    27   15   16 ar
    28   15   22 1
    29   16   17 ar
    30   16   43 1
    31   17   18 ar
    32   17   44 1
    33   18   19 1
    34   19   20 1
    35   20   21 1
    36   20   45 1
    37   20   46 1
    38   21   47 1
    39   21   48 1
    40   21   49 1
    41   22   23 2
    42   22   24 2
    43   22   25 1
    44   25   30 1
    45   25   26 1
    46   26   27 1
    47   26   50 1
    48   26   51 1
    49   27   28 1
    50   27   52 1
    51   27   53 1
    52   28   29 1
    53   28   31 1
    54   28   64 1
    55   29   30 1
    56   29   54 1
    57   29   55 1
    58   30   56 1
    59   30   57 1
    60   31   58 1
    61   31   59 1
    62   31   60 1
    63   32   33 1
    64   32   34 1
    65   34   61 1
    66   34   62 1
    67   34   63 1
@<TRIPOS>MOLECULE
ZINC14953365
   31    33     0     0     0
SMALL
USER_CHARGES

@<TRIPOS>ATOM
      1 C1         -0.0187    1.5258    0.0104 C.3       1 <0>        -0.1423
      2 C2          0.0021   -0.0041    0.0020 C.3       1 <0>        -0.1231
      3 C3          0.7421   -0.5109    1.2415 C.3       1 <0>         0.0541
      4 O1          0.7614   -1.9398    1.2337 O.3       1 <0>        -0.2395
      5 C4          1.3846   -2.5535    2.2722 C.ar      1 <0>         0.1595
      6 C5          1.9611   -1.7987    3.2821 C.ar      1 <0>        -0.2333
      7 C6          2.5948   -2.4244    4.3380 C.ar      1 <0>        -0.0982
      8 C7          2.6582   -3.8062    4.3957 C.ar      1 <0>        -0.1779
      9 C8          2.0888   -4.5703    3.3986 C.ar      1 <0>        -0.0533
     10 C9          1.4423   -3.9501    2.3303 C.ar      1 <0>        -0.0190
     11 C10         0.8245   -4.7657    1.2592 C.ar      1 <0>         0.3508
     12 N1          0.2275   -4.1264    0.2544 N.ar      1 <0>        -0.6291
     13 C11        -0.3501   -4.7739   -0.7445 C.ar      1 <0>         0.5035
     14 O2         -0.9512   -4.1076   -1.7566 O.3       1 <0>        -0.7157
     15 C12        -0.3151   -6.2310   -0.7156 C.ar      1 <0>        -0.1910
     16 N2         -0.7406   -7.2297   -1.4617 N.2       1 <0>        -0.3291
     17 N3         -0.3994   -8.3395   -0.9027 N.2       1 <0>        -0.1963
     18 N4          0.2445   -8.1643    0.1989 N.2       1 <0>        -0.3779
     19 C13         0.3620   -6.8697    0.4258 C.ar      1 <0>         0.1454
     20 N5          0.9051   -6.0766    1.3584 N.ar      1 <0>        -0.5680
     21 H1          1.0039    1.9031    0.0027 H         1 <0>         0.0496
     22 H2         -0.5459    1.8868   -0.8726 H         1 <0>         0.0570
     23 H3         -0.5289    1.8773    0.9072 H         1 <0>         0.0496
     24 H4         -1.0205   -0.3814    0.0098 H         1 <0>         0.0770
     25 H5          0.5123   -0.3556   -0.8948 H         1 <0>         0.0771
     26 H6          1.7647   -0.1336    1.2338 H         1 <0>         0.0463
     27 H7          0.2319   -0.1594    2.1383 H         1 <0>         0.0462
     28 H8          1.9151   -0.7204    3.2430 H         1 <0>         0.1171
     29 H9          3.0433   -1.8327    5.1223 H         1 <0>         0.1089
     30 H10         3.1558   -4.2876    5.2246 H         1 <0>         0.1125
     31 H11         2.1408   -5.6480    3.4470 H         1 <0>         0.1392
@<TRIPOS>BOND
     1    1    2 1
     2    1   21 1
     3    1   22 1
     4    1   23 1
     5    2    3 1
     6    2   24 1
     7    2   25 1
     8    3    4 1
     9    3   26 1
    10    3   27 1
    11    4    5 1
    12    5   10 ar
    13    5    6 ar
    14    6    7 ar
    15    6   28 1
    16    7    8 ar
    17    7   29 1
    18    8    9 ar
    19    8   30 1
    20    9   10 ar
    21    9   31 1
    22   10   11 1
    23   11   20 ar
    24   11   12 ar
    25   12   13 ar
    26   13   14 1
    27   13   15 ar
    28   15   19 ar
    29   15   16 2
    30   16   17 1
    31   17   18 1
    32   18   19 2
    33   19   20 ar
@<TRIPOS>MOLECULE
ZINC14953365
   32    34     0     0     0
SMALL
USER_CHARGES

@<TRIPOS>ATOM
      1 C1         -0.0187    1.5258    0.0104 C.3       1 <0>        -0.1458
      2 C2          0.0021   -0.0041    0.0020 C.3       1 <0>        -0.1216
      3 C3         -1.4333   -0.5336    0.0129 C.3       1 <0>         0.0534
      4 O1         -1.4139   -1.9625    0.0050 O.3       1 <0>        -0.2533
      5 C4         -2.6153   -2.5953    0.0131 C.ar      1 <0>         0.1746
      6 C5         -3.7897   -1.8588    0.0225 C.ar      1 <0>        -0.2311
      7 C6         -5.0111   -2.5039    0.0312 C.ar      1 <0>        -0.0713
      8 C7         -5.0711   -3.8869    0.0301 C.ar      1 <0>        -0.1782
      9 C8         -3.9107   -4.6328    0.0203 C.ar      1 <0>        -0.0340
     10 C9         -2.6726   -3.9927    0.0061 C.ar      1 <0>        -0.0608
     11 C10        -1.4229   -4.7891   -0.0106 C.ar      1 <0>         0.4081
     12 N1         -0.2554   -4.1511   -0.0133 N.ar      1 <0>        -0.5727
     13 C11         0.8902   -4.8180   -0.0276 C.ar      1 <0>         0.4867
     14 O2          2.0741   -4.1594   -0.0298 O.3       1 <0>        -0.6795
     15 C12         0.8508   -6.2155   -0.0399 C.ar      1 <0>        -0.1593
     16 C13        -0.4029   -6.8559   -0.0366 C.ar      1 <0>         0.2596
     17 N2         -1.5075   -6.1089   -0.0169 N.ar      1 <0>        -0.5690
     18 N3         -0.1345   -8.1734   -0.0512 N.2       1 <0>        -0.2773
     19 N4          1.1405   -8.3484   -0.0624 N.2       1 <0>        -0.0384
     20 N5          1.7753   -7.2265   -0.0565 N.pl3     1 <0>        -0.3729
     21 H1          2.7391   -7.1171   -0.0631 H         1 <0>         0.4476
     22 H2          1.0039    1.9031    0.0027 H         1 <0>         0.0602
     23 H3         -0.5459    1.8868   -0.8726 H         1 <0>         0.0527
     24 H4         -0.5289    1.8773    0.9072 H         1 <0>         0.0527
     25 H5          0.5123   -0.3556   -0.8948 H         1 <0>         0.0759
     26 H6          0.5293   -0.3651    0.8851 H         1 <0>         0.0760
     27 H7         -1.9435   -0.1821    0.9097 H         1 <0>         0.0536
     28 H8         -1.9605   -0.1726   -0.8702 H         1 <0>         0.0536
     29 H9         -3.7496   -0.7795    0.0234 H         1 <0>         0.1258
     30 H10        -5.9238   -1.9264    0.0393 H         1 <0>         0.1192
     31 H11        -6.0299   -4.3838    0.0374 H         1 <0>         0.1223
     32 H12        -3.9616   -5.7116    0.0195 H         1 <0>         0.1433
@<TRIPOS>BOND
     1    1    2 1
     2    1   22 1
     3    1   23 1
     4    1   24 1
     5    2    3 1
     6    2   25 1
     7    2   26 1
     8    3    4 1
     9    3   27 1
    10    3   28 1
    11    4    5 1
    12    5   10 ar
    13    5    6 ar
    14    6    7 ar
    15    6   29 1
    16    7    8 ar
    17    7   30 1
    18    8    9 ar
    19    8   31 1
    20    9   10 ar
    21    9   32 1
    22   10   11 1
    23   11   17 ar
    24   11   12 ar
    25   12   13 ar
    26   13   14 1
    27   13   15 ar
    28   15   16 ar
    29   15   20 1
    30   16   17 ar
    31   16   18 1
    32   18   19 2
    33   19   20 1
    34   20   21 1
@<TRIPOS>MOLECULE
ZINC14953365
   32    34     0     0     0
SMALL
USER_CHARGES

@<TRIPOS>ATOM
      1 C1         -0.0187    1.5258    0.0104 C.3       1 <0>        -0.1457
      2 C2          0.0021   -0.0041    0.0020 C.3       1 <0>        -0.1224
      3 C3         -1.4333   -0.5336    0.0129 C.3       1 <0>         0.0532
      4 O1         -1.4139   -1.9625    0.0050 O.3       1 <0>        -0.2520
      5 C4         -2.6152   -2.5953    0.0131 C.ar      1 <0>         0.1789
      6 C5         -3.7896   -1.8588    0.0225 C.ar      1 <0>        -0.2310
      7 C6         -5.0111   -2.5039    0.0308 C.ar      1 <0>        -0.0680
      8 C7         -5.0712   -3.8870    0.0297 C.ar      1 <0>        -0.1802
      9 C8         -3.9111   -4.6331    0.0208 C.ar      1 <0>        -0.0323
     10 C9         -2.6726   -3.9930    0.0061 C.ar      1 <0>        -0.0665
     11 C10        -1.4235   -4.7891   -0.0106 C.ar      1 <0>         0.4378
     12 N1         -0.2555   -4.1526   -0.0133 N.ar      1 <0>        -0.5853
     13 C11         0.8886   -4.8183   -0.0276 C.ar      1 <0>         0.5093
     14 O2          2.0713   -4.1592   -0.0297 O.3       1 <0>        -0.6423
     15 C12         0.8505   -6.2267   -0.0400 C.ar      1 <0>        -0.1919
     16 C13        -0.4080   -6.8564   -0.0366 C.ar      1 <0>         0.3382
     17 N2         -1.5070   -6.1104   -0.0169 N.ar      1 <0>        -0.6189
     18 N3         -0.1580   -8.2010   -0.0510 N.pl3     1 <0>        -0.5059
     19 N4          1.2372   -8.3495   -0.0627 N.2       1 <0>        -0.0830
     20 N5          1.7907   -7.1872   -0.0559 N.2       1 <0>        -0.1662
     21 H1         -0.8167   -8.9130   -0.0527 H         1 <0>         0.4358
     22 H2          1.0039    1.9031    0.0027 H         1 <0>         0.0608
     23 H3         -0.5459    1.8868   -0.8726 H         1 <0>         0.0526
     24 H4         -0.5289    1.8773    0.9072 H         1 <0>         0.0526
     25 H5          0.5123   -0.3556   -0.8948 H         1 <0>         0.0768
     26 H6          0.5293   -0.3651    0.8851 H         1 <0>         0.0769
     27 H7         -1.9435   -0.1821    0.9097 H         1 <0>         0.0542
     28 H8         -1.9605   -0.1726   -0.8702 H         1 <0>         0.0542
     29 H9         -3.7496   -0.7795    0.0238 H         1 <0>         0.1271
     30 H10        -5.9237   -1.9264    0.0385 H         1 <0>         0.1201
     31 H11        -6.0302   -4.3837    0.0362 H         1 <0>         0.1222
     32 H12        -3.9622   -5.7119    0.0203 H         1 <0>         0.1409
@<TRIPOS>BOND
     1    1    2 1
     2    1   22 1
     3    1   23 1
     4    1   24 1
     5    2    3 1
     6    2   25 1
     7    2   26 1
     8    3    4 1
     9    3   27 1
    10    3   28 1
    11    4    5 1
    12    5   10 ar
    13    5    6 ar
    14    6    7 ar
    15    6   29 1
    16    7    8 ar
    17    7   30 1
    18    8    9 ar
    19    8   31 1
    20    9   10 ar
    21    9   32 1
    22   10   11 1
    23   11   17 ar
    24   11   12 ar
    25   12   13 ar
    26   13   14 1
    27   13   15 ar
    28   15   16 ar
    29   15   20 1
    30   16   17 ar
    31   16   18 1
    32   18   21 1
    33   18   19 1
    34   19   20 2
@<TRIPOS>MOLECULE
ZINC14953365
   32    34     0     0     0
SMALL
USER_CHARGES

@<TRIPOS>ATOM
      1 C1         -0.0187    1.5258    0.0104 C.3       1 <0>        -0.1457
      2 C2          0.0021   -0.0041    0.0020 C.3       1 <0>        -0.1218
      3 C3          0.7421   -0.5109    1.2415 C.3       1 <0>         0.0528
      4 O1          0.7614   -1.9398    1.2337 O.3       1 <0>        -0.2494
      5 C4          1.3846   -2.5535    2.2722 C.ar      1 <0>         0.1779
      6 C5          1.9611   -1.7987    3.2821 C.ar      1 <0>        -0.2330
      7 C6          2.5948   -2.4244    4.3380 C.ar      1 <0>        -0.0705
      8 C7          2.6582   -3.8062    4.3957 C.ar      1 <0>        -0.1809
      9 C8          2.0888   -4.5703    3.3986 C.ar      1 <0>        -0.0318
     10 C9          1.4423   -3.9501    2.3303 C.ar      1 <0>        -0.0655
     11 C10         0.8245   -4.7657    1.2592 C.ar      1 <0>         0.4409
     12 N1          0.2275   -4.1264    0.2544 N.ar      1 <0>        -0.6040
     13 C11        -0.3501   -4.7739   -0.7445 C.ar      1 <0>         0.5269
     14 O2         -0.9512   -4.1076   -1.7566 O.3       1 <0>        -0.6419
     15 C12        -0.3151   -6.2310   -0.7156 C.ar      1 <0>        -0.1264
     16 N2         -0.7406   -7.2297   -1.4617 N.2       1 <0>        -0.2278
     17 N3         -0.3994   -8.3395   -0.9027 N.pl3     1 <0>        -0.2462
     18 N4          0.2445   -8.1643    0.1989 N.2       1 <0>        -0.3215
     19 C13         0.3620   -6.8697    0.4258 C.ar      1 <0>         0.2652
     20 N5          0.9051   -6.0766    1.3584 N.ar      1 <0>        -0.5901
     21 H1          1.0039    1.9031    0.0027 H         1 <0>         0.0523
     22 H2         -0.5459    1.8868   -0.8726 H         1 <0>         0.0600
     23 H3         -0.5289    1.8773    0.9072 H         1 <0>         0.0523
     24 H4         -1.0205   -0.3814    0.0098 H         1 <0>         0.0764
     25 H5          0.5123   -0.3556   -0.8948 H         1 <0>         0.0765
     26 H6          1.7647   -0.1336    1.2338 H         1 <0>         0.0531
     27 H7          0.2319   -0.1594    2.1383 H         1 <0>         0.0530
     28 H8          1.9151   -0.7204    3.2430 H         1 <0>         0.1254
     29 H9          3.0433   -1.8327    5.1223 H         1 <0>         0.1184
     30 H10         3.1558   -4.2876    5.2246 H         1 <0>         0.1211
     31 H11         2.1408   -5.6480    3.4470 H         1 <0>         0.1429
     32 H12        -0.6055   -9.2126   -1.2715 H         1 <0>         0.4610
@<TRIPOS>BOND
     1    1    2 1
     2    1   21 1
     3    1   22 1
     4    1   23 1
     5    2    3 1
     6    2   24 1
     7    2   25 1
     8    3    4 1
     9    3   26 1
    10    3   27 1
    11    4    5 1
    12    5   10 ar
    13    5    6 ar
    14    6    7 ar
    15    6   28 1
    16    7    8 ar
    17    7   29 1
    18    8    9 ar
    19    8   30 1
    20    9   10 ar
    21    9   31 1
    22   10   11 1
    23   11   20 ar
    24   11   12 ar
    25   12   13 ar
    26   13   14 1
    27   13   15 ar
    28   15   19 ar
    29   15   16 2
    30   16   17 1
    31   17   18 1
    32   17   32 1
    33   18   19 2
    34   19   20 ar
@<TRIPOS>MOLECULE
ZINC29488267
   39    41     0     0     0
SMALL
USER_CHARGES

@<TRIPOS>ATOM
      1 C1         -0.0187    1.5258    0.0104 C.3       1 <0>        -0.1476
      2 C2          0.0021   -0.0041    0.0020 C.3       1 <0>        -0.1162
      3 C3         -1.4333   -0.5336    0.0129 C.3       1 <0>        -0.0253
      4 C4         -1.4129   -2.0405    0.0046 C.2       1 <0>         0.0762
      5 C5         -1.4070   -2.8569   -1.1475 C.ar      1 <0>         0.0686
      6 C6         -1.3869   -4.1920   -0.7014 C.ar      1 <0>        -0.0547
      7 C7         -1.3777   -5.2165   -1.6565 C.ar      1 <0>         0.4611
      8 O1         -1.3588   -6.5164   -1.2751 O.3       1 <0>        -0.6949
      9 N1         -1.3884   -4.8893   -2.9402 N.ar      1 <0>        -0.5679
     10 C8         -1.4074   -3.6162   -3.3266 C.ar      1 <0>         0.3660
     11 N2         -1.4163   -2.6161   -2.4630 N.ar      1 <0>        -0.5587
     12 C9         -1.4186   -3.3091   -4.7764 C.ar      1 <0>        -0.0506
     13 C10        -1.4328   -1.9850   -5.2116 C.ar      1 <0>        -0.0415
     14 C11        -1.4432   -1.7045   -6.5622 C.ar      1 <0>        -0.1776
     15 C12        -1.4396   -2.7334   -7.4883 C.ar      1 <0>        -0.0780
     16 C13        -1.4256   -4.0494   -7.0685 C.ar      1 <0>        -0.2300
     17 C14        -1.4092   -4.3463   -5.7145 C.ar      1 <0>         0.1679
     18 O2         -1.3897   -5.6394   -5.3005 O.3       1 <0>        -0.2522
     19 C15        -1.3811   -6.6454   -6.3153 C.3       1 <0>         0.0490
     20 C16        -1.3591   -8.0288   -5.6620 C.3       1 <0>        -0.1462
     21 N3         -1.3812   -4.1504    0.6672 N.pl3     1 <0>        -0.4698
     22 H1         -1.3678   -4.9174    1.2608 H         1 <0>         0.4381
     23 N4         -1.3920   -2.8055    1.0596 N.2       1 <0>        -0.2610
     24 H2          1.0039    1.9031    0.0027 H         1 <0>         0.0508
     25 H3         -0.5459    1.8868   -0.8726 H         1 <0>         0.0554
     26 H4         -0.5289    1.8773    0.9072 H         1 <0>         0.0513
     27 H5          0.5123   -0.3556   -0.8948 H         1 <0>         0.0667
     28 H6          0.5293   -0.3651    0.8851 H         1 <0>         0.0589
     29 H7         -1.9435   -0.1821    0.9097 H         1 <0>         0.0707
     30 H8         -1.9605   -0.1726   -0.8702 H         1 <0>         0.0844
     31 H9         -1.4360   -1.1795   -4.4922 H         1 <0>         0.1403
     32 H10        -1.4546   -0.6782   -6.8985 H         1 <0>         0.1199
     33 H11        -1.4482   -2.5062   -8.5441 H         1 <0>         0.1173
     34 H12        -1.4233   -4.8477   -7.7959 H         1 <0>         0.1240
     35 H13        -2.2755   -6.5484   -6.9307 H         1 <0>         0.0521
     36 H14        -0.4957   -6.5243   -6.9395 H         1 <0>         0.0521
     37 H15        -1.3526   -8.7961   -6.4360 H         1 <0>         0.0662
     38 H16        -0.4647   -8.1258   -5.0466 H         1 <0>         0.0677
     39 H17        -2.2445   -8.1499   -5.0378 H         1 <0>         0.0677
@<TRIPOS>BOND
     1    1    2 1
     2    1   24 1
     3    1   25 1
     4    1   26 1
     5    2    3 1
     6    2   27 1
     7    2   28 1
     8    3    4 1
     9    3   29 1
    10    3   30 1
    11    4   23 2
    12    4    5 1
    13    5   11 ar
    14    5    6 ar
    15    6    7 ar
    16    6   21 1
    17    7    8 1
    18    7    9 ar
    19    9   10 ar
    20   10   11 ar
    21   10   12 1
    22   12   17 ar
    23   12   13 ar
    24   13   14 ar
    25   13   31 1
    26   14   15 ar
    27   14   32 1
    28   15   16 ar
    29   15   33 1
    30   16   17 ar
    31   16   34 1
    32   17   18 1
    33   18   19 1
    34   19   20 1
    35   19   35 1
    36   19   36 1
    37   20   37 1
    38   20   38 1
    39   20   39 1
    40   21   22 1
    41   21   23 1
@<TRIPOS>MOLECULE
ZINC29488267
   40    42     0     0     0
SMALL
USER_CHARGES

@<TRIPOS>ATOM
      1 C1         -0.0187    1.5258    0.0104 C.3       1 <0>        -0.1519
      2 C2          0.0021   -0.0041    0.0020 C.3       1 <0>        -0.1160
      3 C3          0.7421   -0.5109    1.2415 C.3       1 <0>        -0.0383
      4 C4          0.7625   -2.0177    1.2333 C.2       1 <0>         0.1094
      5 C5          1.7593   -2.8217    0.6470 C.2       1 <0>         0.0534
      6 C6          1.3912   -4.1551    0.8682 C.2       1 <0>        -0.0376
      7 C7          2.2281   -5.1838    0.3771 C.2       1 <0>         0.5692
      8 N1          3.3521   -4.8353   -0.2875 N.am      1 <0>        -0.6307
      9 C8          3.6630   -3.5156   -0.4743 C.2       1 <0>         0.4082
     10 N2          2.8964   -2.5515   -0.0254 N.2       1 <0>        -0.4353
     11 C9          4.8986   -3.1673   -1.2036 C.ar      1 <0>        -0.1037
     12 C10         5.7297   -4.1746   -1.6977 C.ar      1 <0>        -0.0573
     13 C11         6.8818   -3.8429   -2.3783 C.ar      1 <0>        -0.1588
     14 C12         7.2193   -2.5141   -2.5741 C.ar      1 <0>        -0.0503
     15 C13         6.4059   -1.5083   -2.0899 C.ar      1 <0>        -0.2163
     16 C14         5.2405   -1.8244   -1.4088 C.ar      1 <0>         0.1920
     17 O1          4.4371   -0.8369   -0.9378 O.3       1 <0>        -0.2664
     18 C15         4.8501    0.5086   -1.1848 C.3       1 <0>         0.0459
     19 C16         3.8269    1.4746   -0.5841 C.3       1 <0>        -0.1513
     20 O2          1.9429   -6.3562    0.5493 O.2       1 <0>        -0.5270
     21 N3          0.2139   -4.1335    1.5632 N.pl3     1 <0>        -0.4342
     22 H1         -0.2872   -4.9087    1.8613 H         1 <0>         0.4518
     23 N4         -0.1380   -2.7937    1.7732 N.2       1 <0>        -0.2270
     24 H2          1.0039    1.9031    0.0027 H         1 <0>         0.0583
     25 H3         -0.5459    1.8868   -0.8726 H         1 <0>         0.0562
     26 H4         -0.5289    1.8773    0.9072 H         1 <0>         0.0557
     27 H5         -1.0205   -0.3814    0.0098 H         1 <0>         0.0627
     28 H6          0.5123   -0.3556   -0.8948 H         1 <0>         0.0671
     29 H7          1.7647   -0.1336    1.2338 H         1 <0>         0.0950
     30 H8          0.2319   -0.1594    2.1383 H         1 <0>         0.0835
     31 H9          5.4706   -5.2121   -1.5466 H         1 <0>         0.1298
     32 H10         7.5241   -4.6227   -2.7601 H         1 <0>         0.1337
     33 H11         8.1239   -2.2629   -3.1080 H         1 <0>         0.1322
     34 H12         6.6759   -0.4743   -2.2458 H         1 <0>         0.1372
     35 H13         5.8241    0.6797   -0.7264 H         1 <0>         0.0619
     36 H14         4.9201    0.6757   -2.2597 H         1 <0>         0.0620
     37 H15         4.1419    2.5009   -0.7726 H         1 <0>         0.0763
     38 H16         2.8529    1.3035   -1.0426 H         1 <0>         0.0702
     39 H17         3.7569    1.3075    0.4907 H         1 <0>         0.0679
     40 H18         3.9414   -5.5237   -0.6334 H         1 <0>         0.4221
@<TRIPOS>BOND
     1    1    2 1
     2    1   24 1
     3    1   25 1
     4    1   26 1
     5    2    3 1
     6    2   27 1
     7    2   28 1
     8    3    4 1
     9    3   29 1
    10    3   30 1
    11    4    5 1
    12    4   23 2
    13    5   10 1
    14    5    6 2
    15    6    7 1
    16    6   21 1
    17    7    8 am
    18    7   20 2
    19    8    9 1
    20    8   40 1
    21    9   10 2
    22    9   11 1
    23   11   16 ar
    24   11   12 ar
    25   12   13 ar
    26   12   31 1
    27   13   14 ar
    28   13   32 1
    29   14   15 ar
    30   14   33 1
    31   15   16 ar
    32   15   34 1
    33   16   17 1
    34   17   18 1
    35   18   19 1
    36   18   35 1
    37   18   36 1
    38   19   37 1
    39   19   38 1
    40   19   39 1
    41   21   22 1
    42   21   23 1
@<TRIPOS>MOLECULE
ZINC29488267
   40    42     0     0     0
SMALL
USER_CHARGES

@<TRIPOS>ATOM
      1 C1         -0.0187    1.5258    0.0104 C.3       1 <0>        -0.1526
      2 C2          0.0021   -0.0041    0.0020 C.3       1 <0>        -0.1184
      3 C3          0.7182   -0.4975   -1.2568 C.3       1 <0>        -0.0433
      4 C4          0.7386   -2.0043   -1.2651 C.2       1 <0>         0.0539
      5 C5         -0.2542   -2.8329   -1.7262 C.2       1 <0>         0.0185
      6 C6          0.2705   -4.1917   -1.5045 C.2       1 <0>        -0.0691
      7 C7         -0.5839   -5.3179   -1.9063 C.2       1 <0>         0.6031
      8 O1         -0.2220   -6.4700   -1.7556 O.2       1 <0>        -0.5013
      9 N1         -1.7882   -5.0258   -2.4498 N.am      1 <0>        -0.6506
     10 C8         -2.1989   -3.7289   -2.6205 C.2       1 <0>         0.4190
     11 N2         -1.4820   -2.6900   -2.2818 N.2       1 <0>        -0.4364
     12 C9         -3.5267   -3.4925   -3.2214 C.ar      1 <0>        -0.1030
     13 C10        -4.3308   -4.5715   -3.5939 C.ar      1 <0>        -0.0579
     14 C11        -5.5699   -4.3443   -4.1540 C.ar      1 <0>        -0.1587
     15 C12        -6.0213   -3.0497   -4.3491 C.ar      1 <0>        -0.0525
     16 C13        -5.2353   -1.9737   -3.9848 C.ar      1 <0>        -0.2169
     17 C14        -3.9892   -2.1846   -3.4155 C.ar      1 <0>         0.1898
     18 O2         -3.2181   -1.1281   -3.0523 O.3       1 <0>        -0.2654
     19 C15        -3.7555    0.1761   -3.2805 C.3       1 <0>         0.0455
     20 C16        -2.7513    1.2308   -2.8114 C.3       1 <0>        -0.1497
     21 N3          1.4551   -4.0438   -0.9645 N.2       1 <0>        -0.2074
     22 H1          2.5699   -2.4668   -0.4497 H         1 <0>         0.4535
     23 N4          1.7391   -2.7971   -0.8259 N.pl3     1 <0>        -0.3630
     24 H2          1.0039    1.9031    0.0027 H         1 <0>         0.0546
     25 H3         -0.5459    1.8868   -0.8726 H         1 <0>         0.0591
     26 H4         -0.5289    1.8773    0.9072 H         1 <0>         0.0574
     27 H5          0.5293   -0.3651    0.8851 H         1 <0>         0.0594
     28 H6         -1.0205   -0.3814    0.0098 H         1 <0>         0.0721
     29 H7          0.1910   -0.1364   -2.1398 H         1 <0>         0.0987
     30 H8          1.7408   -0.1202   -1.2645 H         1 <0>         0.0776
     31 H9         -3.9824   -5.5827   -3.4438 H         1 <0>         0.1305
     32 H10        -6.1910   -5.1795   -4.4422 H         1 <0>         0.1332
     33 H11        -6.9930   -2.8804   -4.7888 H         1 <0>         0.1313
     34 H12        -5.5940   -0.9669   -4.1400 H         1 <0>         0.1359
     35 H13        -3.9502    0.3078   -4.3449 H         1 <0>         0.0613
     36 H14        -4.6863    0.2880   -2.7244 H         1 <0>         0.0614
     37 H15        -2.5566    1.0992   -1.7471 H         1 <0>         0.0686
     38 H16        -1.8205    1.1190   -3.3675 H         1 <0>         0.0666
     39 H17        -3.1612    2.2257   -2.9855 H         1 <0>         0.0756
     40 H18        -2.3730   -5.7492   -2.7247 H         1 <0>         0.4195
@<TRIPOS>BOND
     1    1    2 1
     2    1   24 1
     3    1   25 1
     4    1   26 1
     5    2    3 1
     6    2   27 1
     7    2   28 1
     8    3    4 1
     9    3   29 1
    10    3   30 1
    11    4    5 2
    12    4   23 1
    13    5   11 1
    14    5    6 1
    15    6    7 1
    16    6   21 2
    17    7    8 2
    18    7    9 am
    19    9   10 1
    20    9   40 1
    21   10   11 2
    22   10   12 1
    23   12   17 ar
    24   12   13 ar
    25   13   14 ar
    26   13   31 1
    27   14   15 ar
    28   14   32 1
    29   15   16 ar
    30   15   33 1
    31   16   17 ar
    32   16   34 1
    33   17   18 1
    34   18   19 1
    35   19   20 1
    36   19   35 1
    37   19   36 1
    38   20   37 1
    39   20   38 1
    40   20   39 1
    41   21   23 1
    42   22   23 1
@<TRIPOS>MOLECULE
ZINC21981375
   67    70     0     0     0
SMALL
USER_CHARGES

@<TRIPOS>ATOM
      1 C1         -0.0187    1.5258    0.0104 C.3       1 <0>        -0.1516
      2 C2          0.0021   -0.0041    0.0020 C.3       1 <0>        -0.1160
      3 C3          0.7421   -0.5109    1.2415 C.3       1 <0>        -0.0368
      4 C4          0.7625   -2.0177    1.2333 C.2       1 <0>         0.1082
      5 C5         -0.2150   -2.8548    1.8056 C.2       1 <0>         0.0436
      6 C6          0.1902   -4.1752    1.5714 C.2       1 <0>        -0.0356
      7 C7         -0.6206   -5.2316    2.0475 C.2       1 <0>         0.5718
      8 O1         -0.3025   -6.3939    1.8644 O.2       1 <0>        -0.5215
      9 N1         -1.7563   -4.9210    2.7109 N.am      1 <0>        -0.6330
     10 H1         -2.3282   -5.6289    3.0467 H         1 <0>         0.4220
     11 C8         -2.1032   -3.6124    2.9116 C.2       1 <0>         0.3995
     12 N2         -1.3622   -2.6230    2.4750 N.2       1 <0>        -0.4299
     13 C9         -3.3503   -3.3058    3.6401 C.ar      1 <0>        -0.1125
     14 C10        -4.1559   -4.3406    4.1193 C.ar      1 <0>         0.0400
     15 C11        -5.3192   -4.0479    4.7987 C.ar      1 <0>        -0.7183
     16 C12        -5.6932   -2.7309    5.0080 C.ar      1 <0>         0.0430
     17 C13        -4.9050   -1.6981    4.5390 C.ar      1 <0>        -0.2316
     18 C14        -3.7289   -1.9750    3.8592 C.ar      1 <0>         0.2413
     19 O2         -2.9506   -0.9610    3.4028 O.3       1 <0>        -0.2579
     20 C15        -3.4004    0.3701    3.6636 C.3       1 <0>         0.0416
     21 C16        -2.4013    1.3700    3.0781 C.3       1 <0>        -0.1519
     22 S1         -6.3348   -5.3548    5.4029 S.o2      1 <0>         2.6925
     23 O3         -7.6469   -4.8242    5.5294 O.2       1 <0>        -0.9487
     24 O4         -6.0477   -6.4946    4.6044 O.2       1 <0>        -0.9502
     25 N3         -5.8174   -5.7083    6.9358 N.pl3     1 <0>        -0.9972
     26 C17        -4.7668   -6.7117    7.1652 C.3       1 <0>         0.1251
     27 C18        -3.6875   -6.0909    8.0586 C.3       1 <0>         0.0399
     28 N4         -4.3121   -5.5559    9.2758 N.3       1 <0>        -0.5244
     29 C19        -5.2529   -4.4728    8.9601 C.3       1 <0>         0.0359
     30 C20        -6.3920   -5.0229    8.1033 C.3       1 <0>         0.1263
     31 C21        -3.2948   -5.1065   10.2356 C.3       1 <0>         0.0542
     32 C22        -3.9620   -4.7916   11.5759 C.3       1 <0>         0.0791
     33 O5         -4.5027   -5.9916   12.1324 O.3       1 <0>        -0.5586
     34 N5          1.3696   -4.1140    0.8826 N.pl3     1 <0>        -0.3298
     35 N6          1.6863   -2.7630    0.6895 N.2       1 <0>        -0.2329
     36 C23         2.1603   -5.2589    0.4238 C.3       1 <0>         0.0993
     37 H2          1.0039    1.9031    0.0027 H         1 <0>         0.0559
     38 H3         -0.5459    1.8868   -0.8726 H         1 <0>         0.0565
     39 H4         -0.5289    1.8773    0.9072 H         1 <0>         0.0577
     40 H5         -1.0205   -0.3814    0.0098 H         1 <0>         0.0665
     41 H6          0.5123   -0.3556   -0.8948 H         1 <0>         0.0628
     42 H7          1.7647   -0.1336    1.2338 H         1 <0>         0.0831
     43 H8          0.2319   -0.1594    2.1383 H         1 <0>         0.0935
     44 H9         -3.8683   -5.3690    3.9577 H         1 <0>         0.1439
     45 H10        -6.6064   -2.5102    5.5406 H         1 <0>         0.1489
     46 H11        -5.2033   -0.6736    4.7056 H         1 <0>         0.1486
     47 H12        -4.3769    0.5203    3.2032 H         1 <0>         0.0677
     48 H13        -3.4788    0.5227    4.7400 H         1 <0>         0.0665
     49 H14        -1.4248    1.2197    3.5385 H         1 <0>         0.0692
     50 H15        -2.3229    1.2173    2.0017 H         1 <0>         0.0720
     51 H16        -2.7444    2.3853    3.2770 H         1 <0>         0.0795
     52 H17        -5.1948   -7.5835    7.6602 H         1 <0>         0.0886
     53 H18        -4.3279   -7.0070    6.2122 H         1 <0>         0.0931
     54 H19        -2.9569   -6.8530    8.3294 H         1 <0>         0.0902
     55 H20        -3.1897   -5.2842    7.5205 H         1 <0>         0.0383
     56 H21        -5.6575   -4.0615    9.8849 H         1 <0>         0.0903
     57 H22        -4.7333   -3.6886    8.4095 H         1 <0>         0.0382
     58 H23        -7.0272   -4.2022    7.7702 H         1 <0>         0.0937
     59 H24        -6.9793   -5.7292    8.6902 H         1 <0>         0.0871
     60 H25        -2.5536   -5.8936   10.3746 H         1 <0>         0.0852
     61 H26        -2.8058   -4.2103    9.8537 H         1 <0>         0.0480
     62 H27        -3.2233   -4.3745   12.2604 H         1 <0>         0.0486
     63 H28        -4.7635   -4.0692   11.4220 H         1 <0>         0.0461
     64 H29        -4.9420   -5.8668   12.9848 H         1 <0>         0.3762
     65 H30         1.8382   -5.5450   -0.5774 H         1 <0>         0.0824
     66 H31         3.2154   -4.9863    0.4020 H         1 <0>         0.0965
     67 H32         2.0155   -6.0970    1.1055 H         1 <0>         0.1004
@<TRIPOS>BOND
     1    1    2 1
     2    1   37 1
     3    1   38 1
     4    1   39 1
     5    2    3 1
     6    2   40 1
     7    2   41 1
     8    3    4 1
     9    3   42 1
    10    3   43 1
    11    4   35 2
    12    4    5 1
    13    5   12 1
    14    5    6 2
    15    6    7 1
    16    6   34 1
    17    7    8 2
    18    7    9 am
    19    9   10 1
    20    9   11 1
    21   11   12 2
    22   11   13 1
    23   13   18 ar
    24   13   14 ar
    25   14   15 ar
    26   14   44 1
    27   15   16 ar
    28   15   22 1
    29   16   17 ar
    30   16   45 1
    31   17   18 ar
    32   17   46 1
    33   18   19 1
    34   19   20 1
    35   20   21 1
    36   20   47 1
    37   20   48 1
    38   21   49 1
    39   21   50 1
    40   21   51 1
    41   22   23 2
    42   22   24 2
    43   22   25 1
    44   25   30 1
    45   25   26 1
    46   26   27 1
    47   26   52 1
    48   26   53 1
    49   27   28 1
    50   27   54 1
    51   27   55 1
    52   28   29 1
    53   28   31 1
    54   29   30 1
    55   29   56 1
    56   29   57 1
    57   30   58 1
    58   30   59 1
    59   31   32 1
    60   31   60 1
    61   31   61 1
    62   32   33 1
    63   32   62 1
    64   32   63 1
    65   33   64 1
    66   34   35 1
    67   34   36 1
    68   36   65 1
    69   36   66 1
    70   36   67 1
@<TRIPOS>MOLECULE
ZINC21981375
   66    69     0     0     0
SMALL
USER_CHARGES

@<TRIPOS>ATOM
      1 C1         -0.0187    1.5258    0.0104 C.3       1 <0>        -0.1485
      2 C2          0.0021   -0.0041    0.0020 C.3       1 <0>        -0.1147
      3 C3         -1.4333   -0.5336    0.0129 C.3       1 <0>        -0.0265
      4 C4         -1.4129   -2.0405    0.0046 C.2       1 <0>         0.0757
      5 C5         -1.4070   -2.8569   -1.1475 C.ar      1 <0>         0.0667
      6 C6         -1.3869   -4.1920   -0.7014 C.ar      1 <0>        -0.0515
      7 C7         -1.3777   -5.2165   -1.6565 C.ar      1 <0>         0.4648
      8 O1         -1.3588   -6.5164   -1.2751 O.3       1 <0>        -0.6911
      9 N1         -1.3884   -4.8893   -2.9402 N.ar      1 <0>        -0.5725
     10 C8         -1.4074   -3.6162   -3.3266 C.ar      1 <0>         0.3611
     11 N2         -1.4163   -2.6161   -2.4630 N.ar      1 <0>        -0.5552
     12 C9         -1.4186   -3.3091   -4.7764 C.ar      1 <0>        -0.0634
     13 C10        -1.4328   -1.9850   -5.2116 C.ar      1 <0>         0.0544
     14 C11        -1.4432   -1.7045   -6.5622 C.ar      1 <0>        -0.7314
     15 C12        -1.4396   -2.7334   -7.4883 C.ar      1 <0>         0.0205
     16 C13        -1.4256   -4.0494   -7.0685 C.ar      1 <0>        -0.2452
     17 C14        -1.4092   -4.3463   -5.7145 C.ar      1 <0>         0.2214
     18 O2         -1.3897   -5.6394   -5.3005 O.3       1 <0>        -0.2427
     19 C15        -1.3811   -6.6454   -6.3153 C.3       1 <0>         0.0443
     20 C16        -1.3591   -8.0288   -5.6620 C.3       1 <0>        -0.1464
     21 S1         -1.4617   -0.0302   -7.1108 S.o2      1 <0>         2.6960
     22 O3         -2.0201   -0.0370   -8.4174 O.2       1 <0>        -0.9633
     23 O4         -2.0135    0.7385   -6.0505 O.2       1 <0>        -0.9523
     24 N3          0.1150    0.4496   -7.2724 N.pl3     1 <0>        -0.9998
     25 C17         0.8390    1.0557   -6.1447 C.3       1 <0>         0.1279
     26 C18         2.1670    0.3130   -5.9632 C.3       1 <0>         0.0389
     27 N4          2.8976    0.3041   -7.2376 N.3       1 <0>        -0.5244
     28 C19         2.1569   -0.4314   -8.2713 C.3       1 <0>         0.0350
     29 C20         0.8304    0.2753   -8.5456 C.3       1 <0>         0.1295
     30 C21         4.2487   -0.2463   -7.0660 C.3       1 <0>         0.0529
     31 C22         5.0604   -0.0126   -8.3418 C.3       1 <0>         0.0802
     32 O5          5.2459    1.3906   -8.5380 O.3       1 <0>        -0.5579
     33 N5         -1.3812   -4.1504    0.6672 N.pl3     1 <0>        -0.3678
     34 N6         -1.3920   -2.8055    1.0596 N.2       1 <0>        -0.2632
     35 C23        -1.3618   -5.3088    1.5638 C.3       1 <0>         0.1224
     36 H1          1.0039    1.9031    0.0027 H         1 <0>         0.0508
     37 H2         -0.5459    1.8868   -0.8726 H         1 <0>         0.0576
     38 H3         -0.5289    1.8773    0.9072 H         1 <0>         0.0512
     39 H4          0.5123   -0.3556   -0.8948 H         1 <0>         0.0656
     40 H5          0.5293   -0.3651    0.8851 H         1 <0>         0.0577
     41 H6         -1.9435   -0.1821    0.9097 H         1 <0>         0.0708
     42 H7         -1.9605   -0.1726   -0.8702 H         1 <0>         0.0861
     43 H8         -1.4360   -1.1795   -4.4922 H         1 <0>         0.1566
     44 H9         -1.4482   -2.5062   -8.5441 H         1 <0>         0.1357
     45 H10        -1.4233   -4.8477   -7.7959 H         1 <0>         0.1358
     46 H11        -2.2755   -6.5484   -6.9307 H         1 <0>         0.0580
     47 H12        -0.4957   -6.5243   -6.9395 H         1 <0>         0.0568
     48 H13        -1.3526   -8.7961   -6.4360 H         1 <0>         0.0693
     49 H14        -0.4647   -8.1258   -5.0466 H         1 <0>         0.0690
     50 H15        -2.2445   -8.1499   -5.0378 H         1 <0>         0.0696
     51 H16         1.0335    2.1070   -6.3571 H         1 <0>         0.0822
     52 H17         0.2427    0.9670   -5.2366 H         1 <0>         0.0976
     53 H18         2.7652    0.8176   -5.2045 H         1 <0>         0.0881
     54 H19         1.9704   -0.7122   -5.6495 H         1 <0>         0.0439
     55 H20         2.7478   -0.4666   -9.1865 H         1 <0>         0.0857
     56 H21         1.9605   -1.4462   -7.9254 H         1 <0>         0.0406
     57 H22         0.2284   -0.3292   -9.2240 H         1 <0>         0.0911
     58 H23         1.0240    1.2501   -8.9932 H         1 <0>         0.0812
     59 H24         4.7389    0.2487   -6.2277 H         1 <0>         0.0839
     60 H25         4.1828   -1.3162   -6.8682 H         1 <0>         0.0490
     61 H26         6.0319   -0.4980   -8.2483 H         1 <0>         0.0464
     62 H27         4.5257   -0.4311   -9.1944 H         1 <0>         0.0459
     63 H28         5.7535    1.6133   -9.3304 H         1 <0>         0.3726
     64 H29        -0.3294   -5.5825    1.7815 H         1 <0>         0.0592
     65 H30        -1.8748   -5.0582    2.4923 H         1 <0>         0.0722
     66 H31        -1.8667   -6.1476    1.0847 H         1 <0>         0.0960
@<TRIPOS>BOND
     1    1    2 1
     2    1   36 1
     3    1   37 1
     4    1   38 1
     5    2    3 1
     6    2   39 1
     7    2   40 1
     8    3    4 1
     9    3   41 1
    10    3   42 1
    11    4   34 2
    12    4    5 1
    13    5   11 ar
    14    5    6 ar
    15    6    7 ar
    16    6   33 1
    17    7    8 1
    18    7    9 ar
    19    9   10 ar
    20   10   11 ar
    21   10   12 1
    22   12   17 ar
    23   12   13 ar
    24   13   14 ar
    25   13   43 1
    26   14   15 ar
    27   14   21 1
    28   15   16 ar
    29   15   44 1
    30   16   17 ar
    31   16   45 1
    32   17   18 1
    33   18   19 1
    34   19   20 1
    35   19   46 1
    36   19   47 1
    37   20   48 1
    38   20   49 1
    39   20   50 1
    40   21   22 2
    41   21   23 2
    42   21   24 1
    43   24   29 1
    44   24   25 1
    45   25   26 1
    46   25   51 1
    47   25   52 1
    48   26   27 1
    49   26   53 1
    50   26   54 1
    51   27   28 1
    52   27   30 1
    53   28   29 1
    54   28   55 1
    55   28   56 1
    56   29   57 1
    57   29   58 1
    58   30   31 1
    59   30   59 1
    60   30   60 1
    61   31   32 1
    62   31   61 1
    63   31   62 1
    64   32   63 1
    65   33   34 1
    66   33   35 1
    67   35   64 1
    68   35   65 1
    69   35   66 1
@<TRIPOS>MOLECULE
ZINC21981375
   67    70     0     0     0
SMALL
USER_CHARGES

@<TRIPOS>ATOM
      1 C1         -0.0187    1.5258    0.0104 C.3       1 <0>        -0.1540
      2 C2          0.0021   -0.0041    0.0020 C.3       1 <0>        -0.1187
      3 C3          0.7421   -0.5109    1.2415 C.3       1 <0>        -0.0456
      4 C4          0.7625   -2.0177    1.2333 C.2       1 <0>         0.0797
      5 C5         -0.2086   -2.8492    1.8019 C.2       1 <0>         0.0226
      6 C6          0.1884   -4.1649    1.5734 C.2       1 <0>        -0.0270
      7 C7         -0.6644   -5.2444    2.0741 C.2       1 <0>         0.5560
      8 O1         -0.3574   -6.4128    1.8983 O.2       1 <0>        -0.4909
      9 N1         -1.7907   -4.9239    2.7310 N.2       1 <0>        -0.5489
     10 C8         -2.1366   -3.6698    2.9297 C.2       1 <0>         0.4948
     11 N2         -1.3868   -2.6245    2.4892 N.pl3     1 <0>        -0.5912
     12 C9         -3.3872   -3.3868    3.6592 C.ar      1 <0>        -0.1385
     13 C10        -3.7870   -2.0670    3.8825 C.ar      1 <0>         0.0503
     14 C11        -4.9566   -1.8094    4.5643 C.ar      1 <0>        -0.7239
     15 C12        -5.7385   -2.8538    5.0302 C.ar      1 <0>         0.0516
     16 C13        -5.3547   -4.1630    4.8167 C.ar      1 <0>        -0.2349
     17 C14        -4.1840   -4.4406    4.1271 C.ar      1 <0>         0.2541
     18 O2         -3.8087   -5.7265    3.9114 O.3       1 <0>        -0.2513
     19 C15        -4.6710   -6.7476    4.4174 C.3       1 <0>         0.0417
     20 C16        -4.0875   -8.1212    4.0803 C.3       1 <0>        -0.1498
     21 S1         -5.4596   -0.1443    4.8451 S.o2      1 <0>         2.6933
     22 O3         -6.3121   -0.1638    5.9818 O.2       1 <0>        -0.9474
     23 O4         -4.2829    0.6504    4.7890 O.2       1 <0>        -0.9502
     24 N3         -6.3977    0.3077    3.5575 N.pl3     1 <0>        -0.9971
     25 C17        -5.7962    0.9207    2.3636 C.3       1 <0>         0.1255
     26 C18        -6.2859    0.1601    1.1267 C.3       1 <0>         0.0397
     27 N4         -7.7543    0.1186    1.1307 N.3       1 <0>        -0.5240
     28 C19        -8.2632   -0.6219    2.2929 C.3       1 <0>         0.0355
     29 C20        -7.8538    0.1011    3.5751 C.3       1 <0>         0.1260
     30 C21        -8.2683   -0.4503   -0.1223 C.3       1 <0>         0.0542
     31 C22        -9.7838   -0.2506   -0.1891 C.3       1 <0>         0.0789
     32 O5        -10.0775    1.1461   -0.2595 O.3       1 <0>        -0.5587
     33 N5          1.3662   -4.1143    0.8861 N.pl3     1 <0>        -0.3266
     34 N6          1.6881   -2.7642    0.6884 N.2       1 <0>        -0.2363
     35 C23         2.1511   -5.2649    0.4317 C.3       1 <0>         0.1018
     36 H1          1.0039    1.9031    0.0027 H         1 <0>         0.0584
     37 H2         -0.5459    1.8868   -0.8726 H         1 <0>         0.0591
     38 H3         -0.5289    1.8773    0.9072 H         1 <0>         0.0587
     39 H4         -1.0205   -0.3814    0.0098 H         1 <0>         0.0617
     40 H5          0.5123   -0.3556   -0.8948 H         1 <0>         0.0685
     41 H6          1.7647   -0.1336    1.2338 H         1 <0>         0.0924
     42 H7          0.2319   -0.1594    2.1383 H         1 <0>         0.0851
     43 H8         -3.1802   -1.2497    3.5217 H         1 <0>         0.1448
     44 H9         -6.6534   -2.6429    5.5638 H         1 <0>         0.1509
     45 H10        -5.9692   -4.9718    5.1835 H         1 <0>         0.1509
     46 H11        -4.7590   -6.6457    5.4991 H         1 <0>         0.0689
     47 H12        -5.6564   -6.6497    3.9619 H         1 <0>         0.0677
     48 H13        -4.7452   -8.9000    4.4663 H         1 <0>         0.0795
     49 H14        -3.9995   -8.2230    2.9987 H         1 <0>         0.0699
     50 H15        -3.1021   -8.2191    4.5358 H         1 <0>         0.0705
     51 H16        -6.1007    1.9651    2.2954 H         1 <0>         0.0889
     52 H17        -4.7100    0.8564    2.4267 H         1 <0>         0.0926
     53 H18        -5.9388    0.6675    0.2266 H         1 <0>         0.0903
     54 H19        -5.8932   -0.8566    1.1458 H         1 <0>         0.0380
     55 H20        -9.3502   -0.6816    2.2386 H         1 <0>         0.0906
     56 H21        -7.8430   -1.6277    2.2958 H         1 <0>         0.0383
     57 H22        -8.1273   -0.5049    4.4389 H         1 <0>         0.0939
     58 H23        -8.3599    1.0652    3.6256 H         1 <0>         0.0877
     59 H24        -7.7981    0.0506   -0.9685 H         1 <0>         0.0853
     60 H25        -8.0403   -1.5156   -0.1582 H         1 <0>         0.0482
     61 H26       -10.1773   -0.7497   -1.0746 H         1 <0>         0.0487
     62 H27       -10.2458   -0.6746    0.7024 H         1 <0>         0.0461
     63 H28       -11.0222    1.3476   -0.3045 H         1 <0>         0.3764
     64 H29         1.8279   -5.5530   -0.5686 H         1 <0>         0.0826
     65 H30         3.2077   -4.9979    0.4094 H         1 <0>         0.0959
     66 H31         2.0017   -6.0998    1.1164 H         1 <0>         0.1018
     67 H32        -1.6804   -1.7156    2.6583 H         1 <0>         0.4172
@<TRIPOS>BOND
     1    1    2 1
     2    1   36 1
     3    1   37 1
     4    1   38 1
     5    2    3 1
     6    2   39 1
     7    2   40 1
     8    3    4 1
     9    3   41 1
    10    3   42 1
    11    4   34 2
    12    4    5 1
    13    5   11 1
    14    5    6 2
    15    6    7 1
    16    6   33 1
    17    7    8 2
    18    7    9 1
    19    9   10 2
    20   10   11 1
    21   10   12 1
    22   11   67 1
    23   12   17 ar
    24   12   13 ar
    25   13   14 ar
    26   13   43 1
    27   14   15 ar
    28   14   21 1
    29   15   16 ar
    30   15   44 1
    31   16   17 ar
    32   16   45 1
    33   17   18 1
    34   18   19 1
    35   19   20 1
    36   19   46 1
    37   19   47 1
    38   20   48 1
    39   20   49 1
    40   20   50 1
    41   21   22 2
    42   21   23 2
    43   21   24 1
    44   24   29 1
    45   24   25 1
    46   25   26 1
    47   25   51 1
    48   25   52 1
    49   26   27 1
    50   26   53 1
    51   26   54 1
    52   27   28 1
    53   27   30 1
    54   28   29 1
    55   28   55 1
    56   28   56 1
    57   29   57 1
    58   29   58 1
    59   30   31 1
    60   30   59 1
    61   30   60 1
    62   31   32 1
    63   31   61 1
    64   31   62 1
    65   32   63 1
    66   33   34 1
    67   33   35 1
    68   35   64 1
    69   35   65 1
    70   35   66 1
@<TRIPOS>MOLECULE
ZINC08855176
   43    45     0     0     0
SMALL
USER_CHARGES

@<TRIPOS>ATOM
      1 C1         -0.0187    1.5258    0.0104 C.3       1 <0>        -0.1516
      2 C2          0.0021   -0.0041    0.0020 C.3       1 <0>        -0.1156
      3 C3          0.7182   -0.4975   -1.2568 C.3       1 <0>        -0.0365
      4 C4          0.7386   -2.0043   -1.2651 C.2       1 <0>         0.1061
      5 C5          1.7436   -2.8145   -0.7017 C.2       1 <0>         0.0479
      6 C6          1.3718   -4.1454   -0.9312 C.2       1 <0>        -0.0412
      7 C7          2.2156   -5.1793   -0.4633 C.2       1 <0>         0.5710
      8 N1          3.3495   -4.8379    0.1881 N.am      1 <0>        -0.6315
      9 C8          3.6633   -3.5203    0.3843 C.2       1 <0>         0.4036
     10 N2          2.8908   -2.5515   -0.0439 N.2       1 <0>        -0.4331
     11 C9          4.9092   -3.1798    1.0995 C.ar      1 <0>        -0.1019
     12 C10         5.7529   -4.1922    1.5609 C.ar      1 <0>        -0.0580
     13 C11         6.9151   -3.8678    2.2277 C.ar      1 <0>        -0.1587
     14 C12         7.2500   -2.5413    2.4426 C.ar      1 <0>        -0.0513
     15 C13         6.4237   -1.5305    1.9916 C.ar      1 <0>        -0.2161
     16 C14         5.2544   -1.8392    1.3138 C.ar      1 <0>         0.1911
     17 O1          4.4446   -0.8467    0.8648 O.3       1 <0>        -0.2663
     18 C15         4.8614    0.4961    1.1201 C.3       1 <0>         0.0461
     19 C16         3.8299    1.4684    0.5443 C.3       1 <0>        -0.1513
     20 O2          1.9270   -6.3498   -0.6426 O.2       1 <0>        -0.5280
     21 N3          0.1845   -4.1164   -1.6087 N.pl3     1 <0>        -0.3326
     22 N4         -0.1751   -2.7746   -1.7907 N.2       1 <0>        -0.2338
     23 C17        -0.5793   -5.2823   -2.0598 C.3       1 <0>         0.1007
     24 H1          1.0039    1.9031    0.0027 H         1 <0>         0.0582
     25 H2         -0.5459    1.8868   -0.8726 H         1 <0>         0.0555
     26 H3         -0.5289    1.8773    0.9072 H         1 <0>         0.0559
     27 H4          0.5293   -0.3651    0.8851 H         1 <0>         0.0668
     28 H5         -1.0205   -0.3814    0.0098 H         1 <0>         0.0620
     29 H6          0.1910   -0.1364   -2.1398 H         1 <0>         0.0822
     30 H7          1.7408   -0.1202   -1.2645 H         1 <0>         0.0941
     31 H8          5.4952   -5.2279    1.3960 H         1 <0>         0.1295
     32 H9          7.5671   -4.6515    2.5842 H         1 <0>         0.1334
     33 H10         8.1621   -2.2958    2.9661 H         1 <0>         0.1319
     34 H11         6.6911   -0.4983    2.1635 H         1 <0>         0.1370
     35 H12         4.9469    0.6518    2.1955 H         1 <0>         0.0618
     36 H13         5.8287    0.6719    0.6495 H         1 <0>         0.0617
     37 H14         3.7445    1.3127   -0.5311 H         1 <0>         0.0678
     38 H15         2.8626    1.2926    1.0149 H         1 <0>         0.0701
     39 H16         4.1478    2.4927    0.7390 H         1 <0>         0.0762
     40 H17        -1.2782   -5.5830   -1.2792 H         1 <0>         0.0808
     41 H18        -1.1321   -5.0270   -2.9638 H         1 <0>         0.0955
     42 H19         0.1042   -6.1045   -2.2719 H         1 <0>         0.0993
     43 H20         3.9435   -5.5300    0.5183 H         1 <0>         0.4213
@<TRIPOS>BOND
     1    1    2 1
     2    1   24 1
     3    1   25 1
     4    1   26 1
     5    2    3 1
     6    2   27 1
     7    2   28 1
     8    3    4 1
     9    3   29 1
    10    3   30 1
    11    4   22 2
    12    4    5 1
    13    5   10 1
    14    5    6 2
    15    6    7 1
    16    6   21 1
    17    7    8 am
    18    7   20 2
    19    8    9 1
    20    8   43 1
    21    9   10 2
    22    9   11 1
    23   11   16 ar
    24   11   12 ar
    25   12   13 ar
    26   12   31 1
    27   13   14 ar
    28   13   32 1
    29   14   15 ar
    30   14   33 1
    31   15   16 ar
    32   15   34 1
    33   16   17 1
    34   17   18 1
    35   18   19 1
    36   18   35 1
    37   18   36 1
    38   19   37 1
    39   19   38 1
    40   19   39 1
    41   21   22 1
    42   21   23 1
    43   23   40 1
    44   23   41 1
    45   23   42 1
@<TRIPOS>MOLECULE
ZINC08855176
   42    44     0     0     0
SMALL
USER_CHARGES

@<TRIPOS>ATOM
      1 C1         -0.0187    1.5258    0.0104 C.3       1 <0>        -0.1474
      2 C2          0.0021   -0.0041    0.0020 C.3       1 <0>        -0.1158
      3 C3          0.7182   -0.4975   -1.2568 C.3       1 <0>        -0.0236
      4 C4          0.7386   -2.0043   -1.2651 C.2       1 <0>         0.0721
      5 C5          1.7462   -2.8166   -0.7003 C.ar      1 <0>         0.0669
      6 C6          1.3703   -4.1533   -0.9322 C.ar      1 <0>        -0.0552
      7 C7          2.2086   -5.1744   -0.4667 C.ar      1 <0>         0.4630
      8 N1          3.3206   -4.8425    0.1724 N.ar      1 <0>        -0.5698
      9 C8          3.6452   -3.5680    0.3741 C.ar      1 <0>         0.3647
     10 N2          2.8868   -2.5711   -0.0467 N.ar      1 <0>        -0.5589
     11 C9          4.9013   -3.2556    1.0959 C.ar      1 <0>        -0.0496
     12 C10         5.2649   -1.9301    1.3272 C.ar      1 <0>        -0.0419
     13 C11         6.4352   -1.6447    1.9995 C.ar      1 <0>        -0.1775
     14 C12         7.2509   -2.6702    2.4459 C.ar      1 <0>        -0.0786
     15 C13         6.9006   -3.9876    2.2223 C.ar      1 <0>        -0.2300
     16 C14         5.7246   -4.2895    1.5531 C.ar      1 <0>         0.1676
     17 O1          5.3763   -5.5842    1.3376 O.3       1 <0>        -0.2519
     18 C15         6.2660   -6.5865    1.8332 C.3       1 <0>         0.0490
     19 C16         5.7106   -7.9722    1.4982 C.3       1 <0>        -0.1458
     20 O2          1.8884   -6.4757   -0.6658 O.3       1 <0>        -0.6934
     21 N3          0.1814   -4.1167   -1.6104 N.pl3     1 <0>        -0.3684
     22 N4         -0.1735   -2.7733   -1.7897 N.2       1 <0>        -0.2648
     23 C17        -0.5870   -5.2783   -2.0646 C.3       1 <0>         0.1229
     24 H1          1.0039    1.9031    0.0027 H         1 <0>         0.0553
     25 H2         -0.5459    1.8868   -0.8726 H         1 <0>         0.0511
     26 H3         -0.5289    1.8773    0.9072 H         1 <0>         0.0506
     27 H4          0.5293   -0.3651    0.8851 H         1 <0>         0.0663
     28 H5         -1.0205   -0.3814    0.0098 H         1 <0>         0.0583
     29 H6          0.1910   -0.1364   -2.1398 H         1 <0>         0.0696
     30 H7          1.7408   -0.1202   -1.2645 H         1 <0>         0.0836
     31 H8          4.6312   -1.1273    0.9802 H         1 <0>         0.1401
     32 H9          6.7162   -0.6173    2.1779 H         1 <0>         0.1197
     33 H10         8.1658   -2.4391    2.9712 H         1 <0>         0.1171
     34 H11         7.5415   -4.7831    2.5727 H         1 <0>         0.1238
     35 H12         7.2447   -6.4654    1.3689 H         1 <0>         0.0519
     36 H13         6.3617   -6.4851    2.9143 H         1 <0>         0.0519
     37 H14         4.7319   -8.0934    1.9625 H         1 <0>         0.0676
     38 H15         5.6149   -8.0737    0.4172 H         1 <0>         0.0676
     39 H16         6.3893   -8.7368    1.8762 H         1 <0>         0.0660
     40 H17        -1.2870   -5.5783   -1.2848 H         1 <0>         0.0587
     41 H18        -1.1388   -5.0184   -2.9679 H         1 <0>         0.0713
     42 H19         0.0932   -6.1027   -2.2789 H         1 <0>         0.0960
@<TRIPOS>BOND
     1    1    2 1
     2    1   24 1
     3    1   25 1
     4    1   26 1
     5    2    3 1
     6    2   27 1
     7    2   28 1
     8    3    4 1
     9    3   29 1
    10    3   30 1
    11    4   22 2
    12    4    5 1
    13    5   10 ar
    14    5    6 ar
    15    6    7 ar
    16    6   21 1
    17    7    8 ar
    18    7   20 1
    19    8    9 ar
    20    9   10 ar
    21    9   11 1
    22   11   16 ar
    23   11   12 ar
    24   12   13 ar
    25   12   31 1
    26   13   14 ar
    27   13   32 1
    28   14   15 ar
    29   14   33 1
    30   15   16 ar
    31   15   34 1
    32   16   17 1
    33   17   18 1
    34   18   19 1
    35   18   35 1
    36   18   36 1
    37   19   37 1
    38   19   38 1
    39   19   39 1
    40   21   22 1
    41   21   23 1
    42   23   40 1
    43   23   41 1
    44   23   42 1
@<TRIPOS>MOLECULE
ZINC01490579
   71    75     0     0     0
SMALL
USER_CHARGES

@<TRIPOS>ATOM
      1 C1        -11.7309    8.6432   -0.7715 C.3       1 <0>         0.0256
      2 O1        -11.7915    7.8281    0.4006 O.3       1 <0>        -0.3010
      3 C2        -10.6149    7.5598    1.0276 C.ar      1 <0>         0.1529
      4 C3         -9.4319    8.0702    0.5247 C.ar      1 <0>        -0.1816
      5 C4         -8.2240    7.7940    1.1688 C.ar      1 <0>         0.0441
      6 C5         -8.2133    6.9984    2.3165 C.ar      1 <0>        -0.2128
      7 C6         -9.3995    6.4948    2.8184 C.ar      1 <0>         0.1497
      8 C7        -10.6021    6.7716    2.1746 C.ar      1 <0>         0.0376
      9 O2        -11.7666    6.2706    2.6669 O.3       1 <0>        -0.3124
     10 C8        -12.1772    4.9898    2.1843 C.3       1 <0>         0.0354
     11 O3         -9.3904    5.7243    3.9390 O.3       1 <0>        -0.3011
     12 C9         -8.1210    5.4805    4.5484 C.3       1 <0>         0.0240
     13 C10        -6.9585    8.3376    0.6332 C.2       1 <0>        -0.0231
     14 C11        -5.9204    7.4354    0.1138 C.ar      1 <0>        -0.0413
     15 C12        -6.0907    6.0513    0.1090 C.ar      1 <0>        -0.0610
     16 C13        -5.0943    5.2437   -0.3920 C.ar      1 <0>        -0.1714
     17 C14        -3.9140    5.7965   -0.8838 C.ar      1 <0>         0.1364
     18 C15        -3.7270    7.1684   -0.8872 C.ar      1 <0>        -0.0844
     19 C16        -4.7268    7.9997   -0.3892 C.ar      1 <0>        -0.0870
     20 C17        -4.5731    9.4617   -0.3718 C.2       1 <0>         0.5503
     21 O4         -3.5543    9.9726   -0.7999 O.2       1 <0>        -0.4960
     22 N1         -5.5606   10.2347    0.1177 N.am      1 <0>        -0.4586
     23 C18        -6.7343    9.7019    0.6137 C.2       1 <0>         0.1106
     24 C19        -7.7671   10.6041    1.1312 C.2       1 <0>         0.4960
     25 O5         -8.7548   10.1491    1.6758 O.2       1 <0>        -0.4612
     26 O6         -7.6221   11.9394    1.0034 O.3       1 <0>        -0.3257
     27 C20        -8.6093   12.7619    1.6285 C.3       1 <0>         0.0316
     28 C21        -5.3919   11.6249    0.1246 C.ar      1 <0>         0.0587
     29 C22        -4.8210   12.2498    1.2261 C.ar      1 <0>        -0.0388
     30 C23        -4.6504   13.6194    1.2309 C.ar      1 <0>        -0.1891
     31 C24        -5.0593   14.3742    0.1387 C.ar      1 <0>         0.2332
     32 C25        -5.6351   13.7498   -0.9607 C.ar      1 <0>        -0.1886
     33 C26        -5.8008   12.3796   -0.9676 C.ar      1 <0>        -0.0308
     34 N2         -4.8918   15.7622    0.1460 N.pl3     1 <0>        -0.8753
     35 O7         -2.9406    4.9830   -1.3693 O.3       1 <0>        -0.3059
     36 C27        -3.1945    3.5771   -1.3379 C.3       1 <0>         0.1121
     37 C28        -2.0124    2.8402   -1.9128 C.ar      1 <0>         0.1187
     38 C29        -0.9168    3.5523   -2.3635 C.ar      1 <0>        -0.1492
     39 C30         0.1657    2.8647   -2.8902 C.ar      1 <0>        -0.0734
     40 C31         0.1054    1.4804   -2.9440 C.ar      1 <0>        -0.1702
     41 C32        -1.0235    0.8367   -2.4743 C.ar      1 <0>         0.1049
     42 N3         -2.0372    1.5238   -1.9846 N.ar      1 <0>        -0.4800
     43 H1        -11.3065    9.6144   -0.5171 H         1 <0>         0.0562
     44 H2        -11.1043    8.1577   -1.5197 H         1 <0>         0.0557
     45 H3        -12.7356    8.7793   -1.1718 H         1 <0>         0.1031
     46 H4         -9.4423    8.6815   -0.3656 H         1 <0>         0.1285
     47 H5         -7.2799    6.7800    2.8140 H         1 <0>         0.1363
     48 H6        -12.3114    5.0347    1.1035 H         1 <0>         0.0440
     49 H7        -11.4146    4.2491    2.4252 H         1 <0>         0.0442
     50 H8        -13.1188    4.7085    2.6559 H         1 <0>         0.0921
     51 H9         -8.2556    4.8544    5.4304 H         1 <0>         0.1033
     52 H10        -7.4687    4.9724    3.8382 H         1 <0>         0.0569
     53 H11        -7.6705    6.4289    4.8413 H         1 <0>         0.0575
     54 H12        -7.0014    5.6152    0.4924 H         1 <0>         0.1428
     55 H13        -5.2274    4.1719   -0.4001 H         1 <0>         0.1426
     56 H14        -2.8115    7.5911   -1.2740 H         1 <0>         0.1526
     57 H15        -8.6759   12.5092    2.6867 H         1 <0>         0.0620
     58 H16        -8.3293   13.8100    1.5222 H         1 <0>         0.1018
     59 H17        -9.5759   12.5941    1.1534 H         1 <0>         0.0611
     60 H18        -4.5072   11.6635    2.0770 H         1 <0>         0.1208
     61 H19        -4.2024   14.1047    2.0855 H         1 <0>         0.1260
     62 H20        -5.9533   14.3365   -1.8097 H         1 <0>         0.1260
     63 H21        -6.2488   11.8942   -1.8221 H         1 <0>         0.1209
     64 H22        -5.1776   16.2892   -0.6165 H         1 <0>         0.4000
     65 H23        -4.4898   16.1982    0.9136 H         1 <0>         0.4000
     66 H24        -4.0833    3.3551   -1.9285 H         1 <0>         0.0900
     67 H25        -3.3544    3.2598   -0.3074 H         1 <0>         0.0900
     68 H26        -0.9043    4.6307   -2.3065 H         1 <0>         0.1453
     69 H27         1.0351    3.3947   -3.2503 H         1 <0>         0.1384
     70 H28         0.9303    0.9124   -3.3483 H         1 <0>         0.1385
     71 H29        -1.0783   -0.2412   -2.5127 H         1 <0>         0.1614
@<TRIPOS>BOND
     1    1    2 1
     2    1   43 1
     3    1   44 1
     4    1   45 1
     5    2    3 1
     6    3    8 ar
     7    3    4 ar
     8    4    5 ar
     9    4   46 1
    10    5    6 ar
    11    5   13 1
    12    6    7 ar
    13    6   47 1
    14    7    8 ar
    15    7   11 1
    16    8    9 1
    17    9   10 1
    18   10   48 1
    19   10   49 1
    20   10   50 1
    21   11   12 1
    22   12   51 1
    23   12   52 1
    24   12   53 1
    25   13   23 2
    26   13   14 1
    27   14   19 ar
    28   14   15 ar
    29   15   16 ar
    30   15   54 1
    31   16   17 ar
    32   16   55 1
    33   17   18 ar
    34   17   35 1
    35   18   19 ar
    36   18   56 1
    37   19   20 1
    38   20   21 2
    39   20   22 am
    40   22   23 1
    41   22   28 1
    42   23   24 1
    43   24   25 2
    44   24   26 1
    45   26   27 1
    46   27   57 1
    47   27   58 1
    48   27   59 1
    49   28   33 ar
    50   28   29 ar
    51   29   30 ar
    52   29   60 1
    53   30   31 ar
    54   30   61 1
    55   31   32 ar
    56   31   34 1
    57   32   33 ar
    58   32   62 1
    59   33   63 1
    60   34   64 1
    61   34   65 1
    62   35   36 1
    63   36   37 1
    64   36   66 1
    65   36   67 1
    66   37   42 ar
    67   37   38 ar
    68   38   39 ar
    69   38   68 1
    70   39   40 ar
    71   39   69 1
    72   40   41 ar
    73   40   70 1
    74   41   42 ar
    75   41   71 1
