@<TRIPOS>MOLECULE
ZINC72116552
   50    53     0     0     0
SMALL
USER_CHARGES

@<TRIPOS>ATOM
      1 C1          0.5909    0.4396    1.2680 C.3       1 <0>         0.1163
      2 N1          0.0021   -0.0041    0.0020 N.pl3     1 <0>        -0.6717
      3 C2          0.6117    0.3948   -1.2690 C.3       1 <0>         0.1173
      4 C3         -1.1265   -0.7975    0.0068 C.ar      1 <0>         0.4707
      5 C4         -2.4189   -0.2225   -0.0377 C.ar      1 <0>        -0.1535
      6 C5         -2.6118    1.1636   -0.0882 C.ar      1 <0>        -0.1399
      7 C6         -3.8799    1.6688   -0.1302 C.ar      1 <0>         0.1190
      8 C7         -4.9920    0.8149   -0.1229 C.ar      1 <0>         0.1605
      9 C8         -4.8291   -0.5516   -0.0738 C.ar      1 <0>        -0.1832
     10 C9         -3.5376   -1.0915   -0.0306 C.ar      1 <0>         0.1770
     11 N2         -3.3251   -2.4160    0.0176 N.ar      1 <0>        -0.5121
     12 C10        -2.1037   -2.8925    0.0573 C.ar      1 <0>         0.3104
     13 N3         -1.0290   -2.1197    0.0476 N.ar      1 <0>        -0.5428
     14 O1         -6.2437    1.3413   -0.1644 O.3       1 <0>        -0.2967
     15 C11        -7.3357    0.4197   -0.1545 C.3       1 <0>         0.0203
     16 O2         -4.0661    3.0149   -0.1792 O.3       1 <0>        -0.2990
     17 C12        -2.8939    3.8323   -0.1835 C.3       1 <0>         0.0662
     18 C13        -3.3001    5.3062   -0.2412 C.3       1 <0>        -0.0683
     19 C14        -2.0640    6.1682   -0.2458 C.ar      1 <0>         0.1621
     20 C15        -1.8898    7.0986   -1.2681 C.ar      1 <0>        -0.1671
     21 C16        -0.7757    7.8883   -1.2885 C.ar      1 <0>        -0.0520
     22 C17         0.1701    7.7291   -0.2581 C.ar      1 <0>        -0.1054
     23 C18         1.3393    8.5056   -0.2124 C.ar      1 <0>        -0.0958
     24 C19         2.2296    8.3220    0.8009 C.ar      1 <0>        -0.1153
     25 C20         1.9963    7.3731    1.7945 C.ar      1 <0>        -0.0981
     26 C21         0.8743    6.6034    1.7810 C.ar      1 <0>        -0.0942
     27 C22        -0.0693    6.7638    0.7511 C.ar      1 <0>         0.1314
     28 N4         -1.1837    6.0263    0.7151 N.ar      1 <0>        -0.4705
     29 H1          1.5199    0.9739    1.0691 H         1 <0>         0.0757
     30 H2         -0.1065    1.1019    1.7808 H         1 <0>         0.0445
     31 H3          0.7975   -0.4270    1.8960 H         1 <0>         0.0501
     32 H4          1.3539   -0.3467   -1.5646 H         1 <0>         0.0446
     33 H5         -0.1595    0.4629   -2.0363 H         1 <0>         0.0553
     34 H6          1.0943    1.3651   -1.1518 H         1 <0>         0.0682
     35 H7         -1.7618    1.8299   -0.0934 H         1 <0>         0.1488
     36 H8         -5.6911   -1.2022   -0.0682 H         1 <0>         0.1552
     37 H9         -1.9688   -3.9633    0.0956 H         1 <0>         0.1963
     38 H10        -7.2651   -0.2366   -1.0219 H         1 <0>         0.0615
     39 H11        -7.2991   -0.1773    0.7567 H         1 <0>         0.0616
     40 H12        -8.2759    0.9700   -0.1909 H         1 <0>         0.1071
     41 H13        -2.3197    3.6489    0.7246 H         1 <0>         0.0773
     42 H14        -2.2846    3.5890   -1.0540 H         1 <0>         0.0630
     43 H15        -3.8743    5.4896   -1.1493 H         1 <0>         0.0954
     44 H16        -3.9095    5.5495    0.6293 H         1 <0>         0.0995
     45 H17        -2.6350    7.1950   -2.0440 H         1 <0>         0.1407
     46 H18        -0.6244    8.6145   -2.0735 H         1 <0>         0.1419
     47 H19         1.5312    9.2438   -0.9770 H         1 <0>         0.1311
     48 H20         3.1288    8.9193    0.8350 H         1 <0>         0.1292
     49 H21         2.7180    7.2463    2.5880 H         1 <0>         0.1315
     50 H22         0.7091    5.8721    2.5583 H         1 <0>         0.1359
@<TRIPOS>BOND
     1    1    2 1
     2    1   29 1
     3    1   30 1
     4    1   31 1
     5    2    3 1
     6    2    4 1
     7    3   32 1
     8    3   33 1
     9    3   34 1
    10    4   13 ar
    11    4    5 ar
    12    5   10 ar
    13    5    6 ar
    14    6    7 ar
    15    6   35 1
    16    7    8 ar
    17    7   16 1
    18    8    9 ar
    19    8   14 1
    20    9   10 ar
    21    9   36 1
    22   10   11 ar
    23   11   12 ar
    24   12   13 ar
    25   12   37 1
    26   14   15 1
    27   15   38 1
    28   15   39 1
    29   15   40 1
    30   16   17 1
    31   17   18 1
    32   17   41 1
    33   17   42 1
    34   18   19 1
    35   18   43 1
    36   18   44 1
    37   19   28 ar
    38   19   20 ar
    39   20   21 ar
    40   20   45 1
    41   21   22 ar
    42   21   46 1
    43   22   27 ar
    44   22   23 ar
    45   23   24 ar
    46   23   47 1
    47   24   25 ar
    48   24   48 1
    49   25   26 ar
    50   25   49 1
    51   26   27 ar
    52   26   50 1
    53   27   28 ar
@<TRIPOS>MOLECULE
ZINC72116552
   51    54     0     0     0
SMALL
USER_CHARGES

@<TRIPOS>ATOM
      1 C1         -1.2666    0.4428    0.5825 C.3       1 <0>         0.1080
      2 N1          0.0021   -0.0041    0.0020 N.pl3     1 <0>        -0.6784
      3 C2          1.2692    0.3686    0.6358 C.3       1 <0>         0.1064
      4 C3          0.0035   -0.7758   -1.1415 C.ar      1 <0>         0.5652
      5 C4          0.0431   -0.1760   -2.4227 C.ar      1 <0>        -0.1356
      6 C5          0.0824    1.2139   -2.5891 C.ar      1 <0>        -0.1230
      7 C6          0.1201    1.7435   -3.8474 C.ar      1 <0>         0.1418
      8 C7          0.1195    0.9109   -4.9756 C.ar      1 <0>         0.2282
      9 C8          0.0814   -0.4588   -4.8388 C.ar      1 <0>        -0.2359
     10 C9          0.0428   -1.0235   -3.5578 C.ar      1 <0>         0.1842
     11 N2          0.0053   -2.3522   -3.3705 N.ar      1 <0>        -0.5063
     12 C10        -0.0304   -2.8522   -2.1584 C.ar      1 <0>         0.4106
     13 N3         -0.0266   -2.1000   -1.0692 N.ar      1 <0>        -0.5144
     14 O1          0.1565    1.4614   -6.2170 O.3       1 <0>        -0.2722
     15 C11         0.1539    0.5607   -7.3264 C.3       1 <0>         0.0101
     16 O2          0.1582    3.0933   -4.0079 O.3       1 <0>        -0.2836
     17 C12         0.1562    3.8881   -2.8203 C.3       1 <0>         0.0599
     18 C13         0.2018    5.3700   -3.1984 C.3       1 <0>        -0.0674
     19 C14         0.1997    6.2082   -1.9460 C.ar      1 <0>         0.1551
     20 C15         1.2146    7.1434   -1.7542 C.ar      1 <0>        -0.1696
     21 C16         1.2288    7.9118   -0.6252 C.ar      1 <0>        -0.0471
     22 C17         0.1999    7.7264    0.3174 C.ar      1 <0>        -0.1028
     23 C18         0.1482    8.4800    1.5011 C.ar      1 <0>        -0.0947
     24 C19        -0.8635    8.2713    2.3879 C.ar      1 <0>        -0.1119
     25 C20        -1.8495    7.3191    2.1366 C.ar      1 <0>        -0.0935
     26 C21        -1.8299    6.5711    1.0000 C.ar      1 <0>        -0.0979
     27 C22        -0.8015    6.7577    0.0597 C.ar      1 <0>         0.1304
     28 N4         -0.7598    6.0419   -1.0686 N.ar      1 <0>        -0.4734
     29 H1         -1.4999    1.4437    0.2192 H         1 <0>         0.0597
     30 H2         -2.0614   -0.2439    0.2912 H         1 <0>         0.0665
     31 H3         -1.1825    0.4612    1.6691 H         1 <0>         0.0837
     32 H4          1.5465   -0.3902    1.3675 H         1 <0>         0.0610
     33 H5          2.0475    0.4425   -0.1238 H         1 <0>         0.0630
     34 H6          1.1565    1.3309    1.1352 H         1 <0>         0.0864
     35 H7          0.0824    1.8639   -1.7266 H         1 <0>         0.1730
     36 H8          0.0809   -1.0929   -5.7130 H         1 <0>         0.1742
     37 H9         -0.0600   -3.9257   -2.0439 H         1 <0>         0.2446
     38 H10         0.1856    1.1291   -8.2559 H         1 <0>         0.1238
     39 H11         1.0265   -0.0898   -7.2684 H         1 <0>         0.0712
     40 H12        -0.7526   -0.0442   -7.3011 H         1 <0>         0.0713
     41 H13        -0.7504    3.6865   -2.2497 H         1 <0>         0.0857
     42 H14         1.0287    3.6403   -2.2158 H         1 <0>         0.0721
     43 H15         1.1084    5.5716   -3.7690 H         1 <0>         0.0989
     44 H16        -0.6706    5.6178   -3.8029 H         1 <0>         0.1024
     45 H17         1.9895    7.2602   -2.4974 H         1 <0>         0.1410
     46 H18         2.0079    8.6413   -0.4601 H         1 <0>         0.1441
     47 H19         0.9068    9.2206    1.7071 H         1 <0>         0.1337
     48 H20        -0.9023    8.8511    3.2983 H         1 <0>         0.1321
     49 H21        -2.6418    7.1721    2.8557 H         1 <0>         0.1334
     50 H22        -2.6014    5.8368    0.8210 H         1 <0>         0.1352
     51 H23         0.0043   -2.9467   -4.1370 H         1 <0>         0.4509
@<TRIPOS>BOND
     1    1    2 1
     2    1   29 1
     3    1   30 1
     4    1   31 1
     5    2    3 1
     6    2    4 1
     7    3   32 1
     8    3   33 1
     9    3   34 1
    10    4   13 ar
    11    4    5 ar
    12    5   10 ar
    13    5    6 ar
    14    6    7 ar
    15    6   35 1
    16    7    8 ar
    17    7   16 1
    18    8    9 ar
    19    8   14 1
    20    9   10 ar
    21    9   36 1
    22   10   11 ar
    23   11   12 ar
    24   11   51 1
    25   12   13 ar
    26   12   37 1
    27   14   15 1
    28   15   38 1
    29   15   39 1
    30   15   40 1
    31   16   17 1
    32   17   18 1
    33   17   41 1
    34   17   42 1
    35   18   19 1
    36   18   43 1
    37   18   44 1
    38   19   28 ar
    39   19   20 ar
    40   20   21 ar
    41   20   45 1
    42   21   22 ar
    43   21   46 1
    44   22   27 ar
    45   22   23 ar
    46   23   24 ar
    47   23   47 1
    48   24   25 ar
    49   24   48 1
    50   25   26 ar
    51   25   49 1
    52   26   27 ar
    53   26   50 1
    54   27   28 ar
@<TRIPOS>MOLECULE
ZINC43194381
   51    55     0     0     0
SMALL
USER_CHARGES

@<TRIPOS>ATOM
      1 C1          0.6428    1.4347    0.3189 C.3       1 <0>         0.0196
      2 O1          0.6814    0.0062    0.3191 O.3       1 <0>        -0.2962
      3 C2          1.1182   -0.5991   -0.8158 C.ar      1 <0>         0.1623
      4 C3          1.4991    0.1645   -1.8835 C.ar      1 <0>        -0.1805
      5 C4          1.9502   -0.4585   -3.0544 C.ar      1 <0>         0.1784
      6 C5          2.0046   -1.8751   -3.1133 C.ar      1 <0>        -0.1379
      7 C6          1.6080   -2.6335   -2.0055 C.ar      1 <0>        -0.1640
      8 C7          1.1778   -1.9994   -0.8744 C.ar      1 <0>         0.1307
      9 O2          0.7981   -2.7340    0.2046 O.3       1 <0>        -0.2959
     10 C8          0.8814   -4.1554    0.0837 C.3       1 <0>         0.0638
     11 C9          0.4160   -4.8064    1.3877 C.3       1 <0>        -0.0681
     12 C10         0.5038   -6.3054    1.2601 C.ar      1 <0>         0.1617
     13 C11         1.2337   -7.0247    2.2042 C.ar      1 <0>        -0.1673
     14 C12         1.3242   -8.3838    2.1044 C.ar      1 <0>        -0.0515
     15 C13         0.6654   -9.0165    1.0334 C.ar      1 <0>        -0.1050
     16 C14         0.7132  -10.4100    0.8662 C.ar      1 <0>        -0.0950
     17 C15         0.0623  -10.9844   -0.1825 C.ar      1 <0>        -0.1152
     18 C16        -0.6514  -10.2077   -1.0932 C.ar      1 <0>        -0.0971
     19 C17        -0.7183   -8.8550   -0.9617 C.ar      1 <0>        -0.0954
     20 C18        -0.0596   -8.2248    0.1087 C.ar      1 <0>         0.1319
     21 N1         -0.1129   -6.8984    0.2670 N.ar      1 <0>        -0.4706
     22 C19         2.4656   -2.4765   -4.3089 C.ar      1 <0>         0.2616
     23 N2          2.8228   -1.6834   -5.3123 N.ar      1 <0>        -0.5168
     24 C20         2.7545   -0.3666   -5.2102 C.ar      1 <0>         0.3023
     25 N3          2.3356    0.2455   -4.1278 N.ar      1 <0>        -0.5047
     26 C21         2.5476   -3.9489   -4.4370 C.ar      1 <0>        -0.1087
     27 C22         1.4986   -4.7613   -3.9917 C.ar      1 <0>        -0.0533
     28 C23         1.6245   -6.1319   -4.1342 C.ar      1 <0>        -0.1691
     29 C24         2.7722   -6.6504   -4.7068 C.ar      1 <0>         0.1160
     30 N4          3.7451   -5.8599   -5.1175 N.ar      1 <0>        -0.4816
     31 C25         3.6692   -4.5495   -5.0087 C.ar      1 <0>         0.1477
     32 H1          1.6456    1.8252    0.1460 H         1 <0>         0.0622
     33 H2         -0.0230    1.7800   -0.4720 H         1 <0>         0.0623
     34 H3          0.2763    1.7884    1.2826 H         1 <0>         0.1083
     35 H4          1.4522    1.2418   -1.8250 H         1 <0>         0.1573
     36 H5          1.6467   -3.7121   -2.0429 H         1 <0>         0.1513
     37 H6          0.2446   -4.4882   -0.7360 H         1 <0>         0.0776
     38 H7          1.9132   -4.4430   -0.1179 H         1 <0>         0.0641
     39 H8          1.0527   -4.4735    2.2074 H         1 <0>         0.0961
     40 H9         -0.6159   -4.5187    1.5893 H         1 <0>         0.1004
     41 H10         1.7276   -6.5080    3.0138 H         1 <0>         0.1406
     42 H11         1.8860   -8.9571    2.8270 H         1 <0>         0.1419
     43 H12         1.2633  -11.0223    1.5653 H         1 <0>         0.1311
     44 H13         0.0999  -12.0562   -0.3105 H         1 <0>         0.1293
     45 H14        -1.1593  -10.6871   -1.9170 H         1 <0>         0.1316
     46 H15        -1.2751   -8.2677   -1.6768 H         1 <0>         0.1357
     47 H16         3.0573    0.2323   -6.0564 H         1 <0>         0.2009
     48 H17         0.6137   -4.3296   -3.5478 H         1 <0>         0.1396
     49 H18         0.8353   -6.7899   -3.8016 H         1 <0>         0.1433
     50 H19         2.8734   -7.7198   -4.8190 H         1 <0>         0.1613
     51 H20         4.4845   -3.9349   -5.3609 H         1 <0>         0.1635
@<TRIPOS>BOND
     1    1    2 1
     2    1   32 1
     3    1   33 1
     4    1   34 1
     5    2    3 1
     6    3    8 ar
     7    3    4 ar
     8    4    5 ar
     9    4   35 1
    10    5   25 ar
    11    5    6 ar
    12    6    7 ar
    13    6   22 ar
    14    7    8 ar
    15    7   36 1
    16    8    9 1
    17    9   10 1
    18   10   11 1
    19   10   37 1
    20   10   38 1
    21   11   12 1
    22   11   39 1
    23   11   40 1
    24   12   21 ar
    25   12   13 ar
    26   13   14 ar
    27   13   41 1
    28   14   15 ar
    29   14   42 1
    30   15   20 ar
    31   15   16 ar
    32   16   17 ar
    33   16   43 1
    34   17   18 ar
    35   17   44 1
    36   18   19 ar
    37   18   45 1
    38   19   20 ar
    39   19   46 1
    40   20   21 ar
    41   22   23 ar
    42   22   26 1
    43   23   24 ar
    44   24   25 ar
    45   24   47 1
    46   26   31 ar
    47   26   27 ar
    48   27   28 ar
    49   27   48 1
    50   28   29 ar
    51   28   49 1
    52   29   30 ar
    53   29   50 1
    54   30   31 ar
    55   31   51 1
@<TRIPOS>MOLECULE
ZINC72113267
   46    49     0     0     0
SMALL
USER_CHARGES

@<TRIPOS>ATOM
      1 C1         -0.0178    1.4608    0.0101 C.3       1 <0>         0.0624
      2 N1          0.0021   -0.0041    0.0020 N.am      1 <0>        -0.5511
      3 C2          0.0056   -0.6708   -1.1825 C.2       1 <0>         0.3723
      4 N2          0.0232   -1.9657   -1.2721 N.2       1 <0>        -0.5197
      5 C3          0.0396   -2.7550   -0.1678 C.ar      1 <0>         0.1588
      6 C4          0.0591   -4.1463   -0.2658 C.ar      1 <0>        -0.1739
      7 C5          0.0758   -4.9138    0.8825 C.ar      1 <0>         0.1553
      8 C6          0.0730   -4.3095    2.1443 C.ar      1 <0>         0.0962
      9 C7          0.0539   -2.9351    2.2601 C.ar      1 <0>        -0.1032
     10 C8          0.0373   -2.1477    1.1085 C.ar      1 <0>        -0.1922
     11 C9          0.0224   -0.6806    1.1738 C.2       1 <0>         0.5474
     12 O1          0.0241   -0.0954    2.2416 O.2       1 <0>        -0.5109
     13 O2          0.0887   -5.0819    3.2636 O.3       1 <0>        -0.2987
     14 C10         0.0848   -4.4025    4.5208 C.3       1 <0>         0.0643
     15 C11         0.1041   -5.4289    5.6553 C.3       1 <0>        -0.0671
     16 C12         0.1000   -4.7124    6.9810 C.ar      1 <0>         0.1616
     17 C13        -0.8854   -5.0220    7.9162 C.ar      1 <0>        -0.1669
     18 C14        -0.9047   -4.3828    9.1229 C.ar      1 <0>        -0.0527
     19 C15         0.0887   -3.4192    9.3800 C.ar      1 <0>        -0.1056
     20 C16         0.1330   -2.7217   10.5981 C.ar      1 <0>        -0.0963
     21 C17         1.1100   -1.7974   10.8089 C.ar      1 <0>        -0.1154
     22 C18         2.0677   -1.5337    9.8314 C.ar      1 <0>        -0.0989
     23 C19         2.0542   -2.1906    8.6398 C.ar      1 <0>        -0.0935
     24 C20         1.0613   -3.1527    8.3848 C.ar      1 <0>         0.1314
     25 N3          1.0267   -3.8182    7.2259 N.ar      1 <0>        -0.4703
     26 O3          0.0947   -6.2683    0.7858 O.3       1 <0>        -0.2966
     27 C21         0.0961   -6.8247   -0.5305 C.3       1 <0>         0.0209
     28 H1          1.0048    1.8381    0.0023 H         1 <0>         0.0776
     29 H2         -0.5450    1.8219   -0.8730 H         1 <0>         0.0909
     30 H3         -0.5280    1.8123    0.9069 H         1 <0>         0.0923
     31 H4         -0.0073   -0.0940   -2.0954 H         1 <0>         0.2031
     32 H5          0.0607   -4.6215   -1.2356 H         1 <0>         0.1543
     33 H6          0.0521   -2.4717    3.2356 H         1 <0>         0.1509
     34 H7          0.9663   -3.7654    4.5922 H         1 <0>         0.0773
     35 H8         -0.8135   -3.7902    4.6001 H         1 <0>         0.0632
     36 H9         -0.7774   -6.0660    5.5839 H         1 <0>         0.0953
     37 H10         1.0023   -6.0412    5.5760 H         1 <0>         0.0993
     38 H11        -1.6334   -5.7665    7.6868 H         1 <0>         0.1409
     39 H12        -1.6613   -4.6100    9.8594 H         1 <0>         0.1419
     40 H13        -0.6039   -2.9173   11.3630 H         1 <0>         0.1311
     41 H14         1.1431   -1.2612   11.7458 H         1 <0>         0.1291
     42 H15         2.8327   -0.7957   10.0226 H         1 <0>         0.1314
     43 H16         2.8034   -1.9737    7.8928 H         1 <0>         0.1361
     44 H17         0.1120   -7.9126   -0.4650 H         1 <0>         0.1060
     45 H18        -0.8012   -6.5057   -1.0607 H         1 <0>         0.0606
     46 H19         0.9786   -6.4802   -1.0696 H         1 <0>         0.0607
@<TRIPOS>BOND
     1    1    2 1
     2    1   28 1
     3    1   29 1
     4    1   30 1
     5    2   11 am
     6    2    3 1
     7    3    4 2
     8    3   31 1
     9    4    5 1
    10    5   10 ar
    11    5    6 ar
    12    6    7 ar
    13    6   32 1
    14    7    8 ar
    15    7   26 1
    16    8    9 ar
    17    8   13 1
    18    9   10 ar
    19    9   33 1
    20   10   11 1
    21   11   12 2
    22   13   14 1
    23   14   15 1
    24   14   34 1
    25   14   35 1
    26   15   16 1
    27   15   36 1
    28   15   37 1
    29   16   25 ar
    30   16   17 ar
    31   17   18 ar
    32   17   38 1
    33   18   19 ar
    34   18   39 1
    35   19   24 ar
    36   19   20 ar
    37   20   21 ar
    38   20   40 1
    39   21   22 ar
    40   21   41 1
    41   22   23 ar
    42   22   42 1
    43   23   24 ar
    44   23   43 1
    45   24   25 ar
    46   26   27 1
    47   27   44 1
    48   27   45 1
    49   27   46 1
@<TRIPOS>MOLECULE
ZINC00056555
   46    48     0     0     0
SMALL
USER_CHARGES

@<TRIPOS>ATOM
      1 C1         -0.0173    1.4248    0.0099 C.3       1 <0>         0.0258
      2 O1          0.0021   -0.0041    0.0020 O.3       1 <0>        -0.3063
      3 C2          0.6262   -0.6188    1.0422 C.ar      1 <0>         0.0999
      4 C3          1.2021    0.1367    2.0510 C.ar      1 <0>        -0.1710
      5 C4          1.8358   -0.4897    3.1079 C.ar      1 <0>        -0.1122
      6 C5          1.8971   -1.8699    3.1612 C.ar      1 <0>        -0.0760
      7 C6          1.3251   -2.6295    2.1578 C.ar      1 <0>        -0.1547
      8 C7          0.6830   -2.0080    1.0988 C.ar      1 <0>         0.1015
      9 O2          0.1145   -2.7540    0.1140 O.3       1 <0>        -0.3064
     10 C8          0.2115   -4.1743    0.2380 C.3       1 <0>         0.0255
     11 C9          2.5896   -2.5476    4.3154 C.3       1 <0>        -0.0305
     12 C10         1.5954   -2.8002    5.4194 C.ar      1 <0>         0.1803
     13 C11         1.3868   -1.8306    6.4126 C.ar      1 <0>        -0.0927
     14 C12         2.0813   -0.6102    6.4178 C.ar      1 <0>        -0.1656
     15 C13         1.8397    0.2976    7.4073 C.ar      1 <0>         0.1202
     16 C14         0.9067    0.0284    8.4207 C.ar      1 <0>         0.1418
     17 C15         0.2161   -1.1496    8.4419 C.ar      1 <0>        -0.1891
     18 C16         0.4428   -2.1015    7.4380 C.ar      1 <0>        -0.0102
     19 C17        -0.2384   -3.3323    7.4069 C.ar      1 <0>        -0.1601
     20 C18         0.0362   -4.2060    6.3992 C.ar      1 <0>         0.0826
     21 N1          0.9194   -3.9252    5.4505 N.ar      1 <0>        -0.4840
     22 O3          0.6880    0.9516    9.3935 O.3       1 <0>        -0.3019
     23 C19        -0.2734    0.6206   10.3977 C.3       1 <0>         0.0223
     24 O4          2.5122    1.4790    7.4120 O.3       1 <0>        -0.3019
     25 C20         3.4494    1.6962    6.3553 C.3       1 <0>         0.0208
     26 H1          1.0053    1.8021    0.0021 H         1 <0>         0.0553
     27 H2         -0.5445    1.7859   -0.8732 H         1 <0>         0.1013
     28 H3         -0.5275    1.7763    0.9067 H         1 <0>         0.0545
     29 H4          1.1562    1.2150    2.0113 H         1 <0>         0.1358
     30 H5          2.2842    0.1003    3.8935 H         1 <0>         0.1221
     31 H6          1.3747   -3.7075    2.2017 H         1 <0>         0.1401
     32 H7          1.2614   -4.4664    0.2576 H         1 <0>         0.0558
     33 H8         -0.2714   -4.4922    1.1620 H         1 <0>         0.0564
     34 H9         -0.2815   -4.6476   -0.6111 H         1 <0>         0.1010
     35 H10         3.0097   -3.4961    3.9808 H         1 <0>         0.0985
     36 H11         3.3894   -1.9067    4.6863 H         1 <0>         0.0913
     37 H12         2.8023   -0.3917    5.6438 H         1 <0>         0.1473
     38 H13        -0.4993   -1.3466    9.2266 H         1 <0>         0.1459
     39 H14        -0.9645   -3.5793    8.1673 H         1 <0>         0.1371
     40 H15        -0.4831   -5.1525    6.3692 H         1 <0>         0.1540
     41 H16        -0.3511    1.4413   11.1107 H         1 <0>         0.1057
     42 H17        -1.2436    0.4521    9.9304 H         1 <0>         0.0589
     43 H18         0.0414   -0.2840   10.9179 H         1 <0>         0.0591
     44 H19         4.2164    0.9223    6.3853 H         1 <0>         0.0590
     45 H20         2.9316    1.6577    5.3969 H         1 <0>         0.0571
     46 H21         3.9148    2.6741    6.4778 H         1 <0>         0.1062
@<TRIPOS>BOND
     1    1    2 1
     2    1   26 1
     3    1   27 1
     4    1   28 1
     5    2    3 1
     6    3    8 ar
     7    3    4 ar
     8    4    5 ar
     9    4   29 1
    10    5    6 ar
    11    5   30 1
    12    6    7 ar
    13    6   11 1
    14    7    8 ar
    15    7   31 1
    16    8    9 1
    17    9   10 1
    18   10   32 1
    19   10   33 1
    20   10   34 1
    21   11   12 1
    22   11   35 1
    23   11   36 1
    24   12   21 ar
    25   12   13 ar
    26   13   18 ar
    27   13   14 ar
    28   14   15 ar
    29   14   37 1
    30   15   16 ar
    31   15   24 1
    32   16   17 ar
    33   16   22 1
    34   17   18 ar
    35   17   38 1
    36   18   19 ar
    37   19   20 ar
    38   19   39 1
    39   20   21 ar
    40   20   40 1
    41   22   23 1
    42   23   41 1
    43   23   42 1
    44   23   43 1
    45   24   25 1
    46   25   44 1
    47   25   45 1
    48   25   46 1
@<TRIPOS>MOLECULE
ZINC35859742
   50    54     0     0     0
SMALL
USER_CHARGES

@<TRIPOS>ATOM
      1 C1         -0.0178    1.4608    0.0101 C.3       1 <0>         0.0984
      2 N1          0.0021   -0.0041    0.0020 N.pl3     1 <0>        -0.3664
      3 C2          0.0077   -0.7858   -1.0958 C.2       1 <0>         0.0822
      4 C3          0.0278   -2.0853   -0.6832 C.2       1 <0>        -0.2042
      5 C4          0.0344   -2.0813    0.7350 C.2       1 <0>         0.1416
      6 N2          0.0245   -0.8283    1.1333 N.2       1 <0>        -0.2823
      7 C5          0.0552   -3.2768    1.6120 C.ar      1 <0>        -0.0563
      8 C6         -0.6178   -4.4360    1.2289 C.ar      1 <0>        -0.0478
      9 C7         -0.5967   -5.5461    2.0467 C.ar      1 <0>        -0.1475
     10 C8          0.0939   -5.5102    3.2505 C.ar      1 <0>         0.1442
     11 C9          0.7648   -4.3573    3.6351 C.ar      1 <0>        -0.2086
     12 C10         0.7526   -3.2458    2.8187 C.ar      1 <0>        -0.0464
     13 O1          0.1129   -6.6057    4.0542 O.3       1 <0>        -0.3099
     14 C11         0.8426   -6.4998    5.2783 C.3       1 <0>         0.1106
     15 C12         0.7518   -7.8018    6.0316 C.ar      1 <0>         0.1588
     16 C13         0.0305   -8.8571    5.4772 C.ar      1 <0>        -0.1546
     17 C14        -0.0626  -10.0444    6.1457 C.ar      1 <0>        -0.0549
     18 C15         0.5848  -10.1584    7.3904 C.ar      1 <0>        -0.1030
     19 C16         0.5338  -11.3479    8.1350 C.ar      1 <0>        -0.0959
     20 C17         1.1735  -11.4187    9.3346 C.ar      1 <0>        -0.1148
     21 C18         1.8791  -10.3257    9.8342 C.ar      1 <0>        -0.0989
     22 C19         1.9488   -9.1578    9.1394 C.ar      1 <0>        -0.0933
     23 C20         1.3016   -9.0458    7.8964 C.ar      1 <0>         0.1323
     24 N3          1.3579   -7.9132    7.1885 N.ar      1 <0>        -0.4702
     25 C21         0.0398   -3.2828   -1.5570 C.ar      1 <0>         0.0455
     26 C22         0.9701   -4.3078   -1.3581 C.ar      1 <0>        -0.1584
     27 C23         0.9462   -5.4043   -2.1941 C.ar      1 <0>         0.1028
     28 N4          0.0622   -5.4932   -3.1698 N.ar      1 <0>        -0.4893
     29 C24        -0.8324   -4.5486   -3.3914 C.ar      1 <0>         0.1017
     30 C25        -0.8824   -3.4210   -2.5990 C.ar      1 <0>        -0.1707
     31 H1          1.0048    1.8381    0.0023 H         1 <0>         0.0793
     32 H2         -0.5450    1.8219   -0.8730 H         1 <0>         0.0916
     33 H3         -0.5280    1.8123    0.9069 H         1 <0>         0.0933
     34 H4         -0.0019   -0.4438   -2.1202 H         1 <0>         0.1806
     35 H5         -1.1556   -4.4644    0.2927 H         1 <0>         0.1304
     36 H6         -1.1182   -6.4443    1.7506 H         1 <0>         0.1361
     37 H7          1.3006   -4.3322    4.5725 H         1 <0>         0.1341
     38 H8          1.2789   -2.3509    3.1160 H         1 <0>         0.1304
     39 H9          1.8874   -6.2782    5.0604 H         1 <0>         0.0909
     40 H10         0.4202   -5.6988    5.8849 H         1 <0>         0.0907
     41 H11        -0.4549   -8.7362    4.5200 H         1 <0>         0.1483
     42 H12        -0.6179  -10.8728    5.7310 H         1 <0>         0.1428
     43 H13        -0.0102  -12.2015    7.7583 H         1 <0>         0.1319
     44 H14         1.1334  -12.3338    9.9067 H         1 <0>         0.1296
     45 H15         2.3783  -10.4068   10.7885 H         1 <0>         0.1320
     46 H16         2.4993   -8.3200    9.5413 H         1 <0>         0.1367
     47 H17         1.6966   -4.2414   -0.5618 H         1 <0>         0.1328
     48 H18         1.6609   -6.2008   -2.0486 H         1 <0>         0.1553
     49 H19        -1.5376   -4.6623   -4.2014 H         1 <0>         0.1554
     50 H20        -1.6204   -2.6542   -2.7830 H         1 <0>         0.1331
@<TRIPOS>BOND
     1    1    2 1
     2    1   31 1
     3    1   32 1
     4    1   33 1
     5    2    6 1
     6    2    3 1
     7    3    4 2
     8    3   34 1
     9    4    5 1
    10    4   25 1
    11    5    6 2
    12    5    7 1
    13    7   12 ar
    14    7    8 ar
    15    8    9 ar
    16    8   35 1
    17    9   10 ar
    18    9   36 1
    19   10   11 ar
    20   10   13 1
    21   11   12 ar
    22   11   37 1
    23   12   38 1
    24   13   14 1
    25   14   15 1
    26   14   39 1
    27   14   40 1
    28   15   24 ar
    29   15   16 ar
    30   16   17 ar
    31   16   41 1
    32   17   18 ar
    33   17   42 1
    34   18   23 ar
    35   18   19 ar
    36   19   20 ar
    37   19   43 1
    38   20   21 ar
    39   20   44 1
    40   21   22 ar
    41   21   45 1
    42   22   23 ar
    43   22   46 1
    44   23   24 ar
    45   25   30 ar
    46   25   26 ar
    47   26   27 ar
    48   26   47 1
    49   27   28 ar
    50   27   48 1
    51   28   29 ar
    52   29   30 ar
    53   29   49 1
    54   30   50 1
@<TRIPOS>MOLECULE
ZINC35998548
   53    57     0     0     0
SMALL
USER_CHARGES

@<TRIPOS>ATOM
      1 C1         -0.0164    1.3571    0.0095 C.ar      1 <0>        -0.1147
      2 C2          1.1699    2.0885    0.0021 C.ar      1 <0>        -0.0988
      3 C3          2.3792    1.4650   -0.0128 C.ar      1 <0>        -0.0933
      4 C4          2.4398    0.0603   -0.0209 C.ar      1 <0>         0.1326
      5 C5          1.2323   -0.6813   -0.0134 C.ar      1 <0>        -0.1029
      6 C6          0.0021   -0.0041    0.0020 C.ar      1 <0>        -0.0959
      7 C7          1.2949   -2.0872   -0.0215 C.ar      1 <0>        -0.0546
      8 C8          2.5269   -2.6774   -0.0364 C.ar      1 <0>        -0.1548
      9 C9          3.6752   -1.8891   -0.0432 C.ar      1 <0>         0.1582
     10 N1          3.6131   -0.5795   -0.0351 N.ar      1 <0>        -0.4699
     11 C10         5.0249   -2.5594   -0.0591 C.3       1 <0>         0.1104
     12 O1          4.8522   -3.9779   -0.0646 O.3       1 <0>        -0.3094
     13 C11         5.9795   -4.7365   -0.0790 C.ar      1 <0>         0.1474
     14 C12         7.2259   -4.1250   -0.0818 C.ar      1 <0>        -0.2090
     15 C13         8.3718   -4.8921   -0.0963 C.ar      1 <0>        -0.0428
     16 C14         8.2777   -6.2830   -0.1082 C.ar      1 <0>        -0.0615
     17 C15         7.0247   -6.8939   -0.1053 C.ar      1 <0>        -0.0453
     18 C16         5.8825   -6.1213   -0.0850 C.ar      1 <0>        -0.1479
     19 C17         9.5079   -7.1108   -0.1243 C.2       1 <0>         0.1540
     20 C18         9.6799   -8.3646    0.5159 C.2       1 <0>        -0.1914
     21 C19        10.9501   -8.7863    0.2548 C.2       1 <0>         0.0910
     22 N2         11.5473   -7.8498   -0.5085 N.pl3     1 <0>        -0.3796
     23 N3         10.6320   -6.8161   -0.7393 N.2       1 <0>        -0.2678
     24 C20        12.9206   -7.9066   -1.0155 C.3       1 <0>         0.0964
     25 C21        12.9097   -7.7445   -2.5369 C.3       1 <0>         0.4449
     26 F1         12.3401   -6.5110   -2.8703 F         1 <0>        -0.1625
     27 F2         14.2211   -7.7988   -3.0211 F         1 <0>        -0.1740
     28 F3         12.1579   -8.7756   -3.1103 F         1 <0>        -0.1772
     29 C22         8.6650   -9.0844    1.3218 C.ar      1 <0>         0.0408
     30 C23         7.9638   -8.4333    2.3415 C.ar      1 <0>        -0.1562
     31 C24         7.0282   -9.1405    3.0671 C.ar      1 <0>         0.1034
     32 N4          6.7918  -10.4130    2.8095 N.ar      1 <0>        -0.4873
     33 C25         7.4312  -11.0643    1.8565 C.ar      1 <0>         0.1026
     34 C26         8.3786  -10.4314    1.0793 C.ar      1 <0>        -0.1683
     35 H1         -0.9628    1.8771    0.0259 H         1 <0>         0.1296
     36 H2          1.1286    3.1677    0.0079 H         1 <0>         0.1321
     37 H3          3.2890    2.0469   -0.0187 H         1 <0>         0.1368
     38 H4         -0.9239   -0.5599    0.0079 H         1 <0>         0.1320
     39 H5          0.3941   -2.6830   -0.0157 H         1 <0>         0.1428
     40 H6          2.6103   -3.7541   -0.0426 H         1 <0>         0.1482
     41 H7          5.5705   -2.2563   -0.9527 H         1 <0>         0.0911
     42 H8          5.5871   -2.2652    0.8271 H         1 <0>         0.0912
     43 H9          7.2982   -3.0475   -0.0730 H         1 <0>         0.1349
     44 H10         9.3412   -4.4159   -0.0989 H         1 <0>         0.1315
     45 H11         6.9485   -7.9712   -0.1148 H         1 <0>         0.1309
     46 H12         4.9115   -6.5941   -0.0780 H         1 <0>         0.1369
     47 H13        11.3980   -9.7067    0.5990 H         1 <0>         0.1859
     48 H14        13.5064   -7.1033   -0.5687 H         1 <0>         0.1347
     49 H15        13.3644   -8.8677   -0.7557 H         1 <0>         0.1445
     50 H16         8.1524   -7.3921    2.5579 H         1 <0>         0.1339
     51 H17         6.4818   -8.6463    3.8568 H         1 <0>         0.1561
     52 H18         7.2066  -12.1058    1.6799 H         1 <0>         0.1563
     53 H19         8.8946  -10.9693    0.2978 H         1 <0>         0.1342
@<TRIPOS>BOND
     1    1    6 ar
     2    1    2 ar
     3    1   35 1
     4    2    3 ar
     5    2   36 1
     6    3    4 ar
     7    3   37 1
     8    4   10 ar
     9    4    5 ar
    10    5    6 ar
    11    5    7 ar
    12    6   38 1
    13    7    8 ar
    14    7   39 1
    15    8    9 ar
    16    8   40 1
    17    9   10 ar
    18    9   11 1
    19   11   12 1
    20   11   41 1
    21   11   42 1
    22   12   13 1
    23   13   18 ar
    24   13   14 ar
    25   14   15 ar
    26   14   43 1
    27   15   16 ar
    28   15   44 1
    29   16   17 ar
    30   16   19 1
    31   17   18 ar
    32   17   45 1
    33   18   46 1
    34   19   23 2
    35   19   20 1
    36   20   21 2
    37   20   29 1
    38   21   22 1
    39   21   47 1
    40   22   23 1
    41   22   24 1
    42   24   25 1
    43   24   48 1
    44   24   49 1
    45   25   26 1
    46   25   27 1
    47   25   28 1
    48   29   34 ar
    49   29   30 ar
    50   30   31 ar
    51   30   50 1
    52   31   32 ar
    53   31   51 1
    54   32   33 ar
    55   33   34 ar
    56   33   52 1
    57   34   53 1
