@<TRIPOS>MOLECULE
ZINC01491100
   62    66     0     0     0
SMALL
USER_CHARGES
chloro-[4-(4-methylpiperazin-1-yl)carbonylphenyl]-BLAHone
@<TRIPOS>ATOM
      1 C1         -3.8501    0.9594   -2.4507 C.3       1 <0>        -0.0422
      2 C2         -1.8710    0.2838   -1.2304 C.3       1 <0>        -0.0149
      3 C3         -0.8071    0.7741   -0.2425 C.3       1 <0>         0.0864
      4 N1         -1.4732    1.1789    1.0048 N.am      1 <0>        -0.6312
      5 C4         -2.6133    2.1048    0.9152 C.3       1 <0>         0.0732
      6 C5         -3.6061    1.5621   -0.1183 C.3       1 <0>        -0.0172
      7 C6         -1.0535    0.7103    2.1967 C.2       1 <0>         0.5741
      8 O1         -0.1824   -0.1364    2.2444 O.2       1 <0>        -0.5022
      9 C7         -1.6517    1.2254    3.4447 C.ar      1 <0>        -0.1508
     10 C8         -1.9516    2.5848    3.5672 C.ar      1 <0>        -0.0895
     11 C9         -2.5140    3.0629    4.7288 C.ar      1 <0>        -0.1183
     12 C10        -2.7749    2.1926    5.7880 C.ar      1 <0>         0.0068
     13 C11        -2.4704    0.8359    5.6688 C.ar      1 <0>        -0.1145
     14 C12        -1.9129    0.3549    4.5061 C.ar      1 <0>        -0.0504
     15 C13        -3.3753    2.7095    7.0404 C.ar      1 <0>        -0.0824
     16 C14        -3.6811    4.0669    7.1626 C.ar      1 <0>        -0.0415
     17 C15        -4.2374    4.5359    8.3266 C.ar      1 <0>        -0.1154
     18 C16        -4.4998    3.6731    9.3888 C.ar      1 <0>         0.2038
     19 C17        -4.1956    2.3215    9.2674 C.ar      1 <0>        -0.0811
     20 C18        -3.6420    1.8412    8.0987 C.ar      1 <0>        -0.0497
     21 Cl1        -4.5187    1.2375   10.5843 Cl        1 <0>        -0.0433
     22 N2         -5.0633    4.1725   10.5623 N.am      1 <0>        -0.6591
     23 C19        -5.3740    5.4636   10.7340 C.2       1 <0>         0.7078
     24 O2         -5.8606    5.8073   11.7939 O.2       1 <0>        -0.5633
     25 N3         -5.1717    6.3987    9.7864 N.am      1 <0>        -0.7095
     26 C20        -4.5840    5.9939    8.5017 C.3       1 <0>         0.2104
     27 C21        -5.5676    6.3754    7.3998 C.3       1 <0>        -0.1240
     28 C22        -5.9090    7.8630    7.5026 C.3       1 <0>        -0.1246
     29 C23        -4.6338    8.6909    7.3267 C.3       1 <0>        -0.1229
     30 C24        -3.6233    8.2993    8.4073 C.3       1 <0>        -0.1250
     31 C25        -3.3100    6.8060    8.2939 C.3       1 <0>        -0.1255
     32 H1         -4.3346    0.0145   -2.2046 H         1 <0>         0.1236
     33 H2         -4.6042    1.7409   -2.5440 H         1 <0>         0.1241
     34 H3         -3.3135    0.8578   -3.3939 H         1 <0>         0.1242
     35 H4         -1.4066    0.0861   -2.1965 H         1 <0>         0.1435
     36 H5         -2.3252   -0.6316   -0.8511 H         1 <0>         0.1354
     37 H6         -0.1007   -0.0300   -0.0361 H         1 <0>         0.1373
     38 H7         -0.2774    1.6265   -0.6680 H         1 <0>         0.0970
     39 H8         -2.2596    3.0872    0.6024 H         1 <0>         0.0987
     40 H9         -3.1021    2.1838    1.8862 H         1 <0>         0.1396
     41 H10        -4.4001    2.2915   -0.2779 H         1 <0>         0.1439
     42 H11        -4.0369    0.6292    0.2455 H         1 <0>         0.1357
     43 H12        -1.7457    3.2592    2.7492 H         1 <0>         0.1319
     44 H13        -2.7494    4.1128    4.8222 H         1 <0>         0.1370
     45 H14        -2.6721    0.1633    6.4894 H         1 <0>         0.1392
     46 H15        -1.6770   -0.6951    4.4142 H         1 <0>         0.1376
     47 H16        -3.4806    4.7441    6.3456 H         1 <0>         0.1430
     48 H17        -3.4105    0.7905    8.0046 H         1 <0>         0.1466
     49 H18        -5.2390    3.5548   11.2892 H         1 <0>         0.4278
     50 H19        -5.4097    7.3249    9.9493 H         1 <0>         0.4320
     51 H20        -5.1187    6.1729    6.4274 H         1 <0>         0.0770
     52 H21        -6.4784    5.7863    7.5072 H         1 <0>         0.0700
     53 H22        -6.3444    8.0693    8.4804 H         1 <0>         0.0650
     54 H23        -6.6240    8.1266    6.7232 H         1 <0>         0.0722
     55 H24        -4.8724    9.7505    7.4186 H         1 <0>         0.0691
     56 H25        -4.2074    8.4975    6.3424 H         1 <0>         0.0654
     57 H26        -4.0434    8.5088    9.3909 H         1 <0>         0.0649
     58 H27        -2.7069    8.8741    8.2733 H         1 <0>         0.0732
     59 H28        -2.5771    6.5309    9.0525 H         1 <0>         0.0710
     60 H29        -2.9037    6.5960    7.3045 H         1 <0>         0.0778
     61 N4         -2.8908    1.3425   -1.3942 N.4       1 <0>        -0.3973
     62 H30        -2.4238    2.2149   -1.6683 H         1 <0>         0.4298
@<TRIPOS>BOND
     1    1   32 1
     2    1   33 1
     3    1   34 1
     4    1   61 1
     5    2    3 1
     6    2   35 1
     7    2   36 1
     8    2   61 1
     9    3    4 1
    10    3   37 1
    11    3   38 1
    12    4    5 1
    13    4    7 am
    14    5    6 1
    15    5   39 1
    16    5   40 1
    17    6   41 1
    18    6   42 1
    19    6   61 1
    20    7    8 2
    21    7    9 1
    22    9   14 ar
    23    9   10 ar
    24   10   11 ar
    25   10   43 1
    26   11   12 ar
    27   11   44 1
    28   12   13 ar
    29   12   15 1
    30   13   14 ar
    31   13   45 1
    32   14   46 1
    33   15   20 ar
    34   15   16 ar
    35   16   17 ar
    36   16   47 1
    37   17   26 1
    38   17   18 ar
    39   18   19 ar
    40   18   22 1
    41   19   20 ar
    42   19   21 1
    43   20   48 1
    44   22   23 am
    45   22   49 1
    46   23   24 2
    47   23   25 am
    48   25   26 1
    49   25   50 1
    50   26   31 1
    51   26   27 1
    52   27   28 1
    53   27   51 1
    54   27   52 1
    55   28   29 1
    56   28   53 1
    57   28   54 1
    58   29   30 1
    59   29   55 1
    60   29   56 1
    61   30   31 1
    62   30   57 1
    63   30   58 1
    64   31   59 1
    65   31   60 1
    66   61   62 1
@<TRIPOS>MOLECULE
ZINC08379230
   44    47     0     0     0
SMALL
USER_CHARGES
4-(chloro-oxo-BLAHyl)benzoic acid
@<TRIPOS>ATOM
      1 C1          4.5946    5.7153    0.0151 C.ar      1 <0>        -0.1215
      2 C2          5.7109    6.5200    0.0077 C.ar      1 <0>        -0.0769
      3 C3          5.5695    7.9107    0.0196 C.ar      1 <0>        -0.1006
      4 C4          4.2938    8.4823    0.0330 C.ar      1 <0>        -0.0853
      5 C5          3.1790    7.6756    0.0346 C.ar      1 <0>        -0.1209
      6 C6          3.3215    6.2872    0.0228 C.ar      1 <0>        -0.0649
      7 C7          2.1202    5.4197    0.0246 C.ar      1 <0>        -0.0297
      8 C8          2.2595    4.0298    0.0122 C.ar      1 <0>        -0.0582
      9 C9          1.1407    3.2346    0.0131 C.ar      1 <0>        -0.1113
     10 C10        -0.1336    3.7983    0.0271 C.ar      1 <0>         0.1716
     11 C11        -0.2728    5.1820    0.0392 C.ar      1 <0>        -0.0704
     12 C12         0.8466    5.9881    0.0380 C.ar      1 <0>        -0.0689
     13 Cl1        -1.8556    5.8950    0.0552 Cl        1 <0>        -0.0606
     14 N1         -1.2557    2.9709    0.0300 N.am      1 <0>        -0.6597
     15 C13        -1.1803    1.6340    0.0164 C.2       1 <0>         0.7101
     16 O1         -2.2143    0.9944    0.0174 O.2       1 <0>        -0.5819
     17 N2         -0.0111    0.9658    0.0074 N.am      1 <0>        -0.7102
     18 C14         1.2446    1.7295   -0.0005 C.3       1 <0>         0.2134
     19 C15         2.0262    1.3264   -1.2470 C.3       1 <0>        -0.1279
     20 C16         2.2018   -0.1931   -1.2785 C.3       1 <0>        -0.1215
     21 C17         2.9877   -0.6398   -0.0436 C.3       1 <0>        -0.1240
     22 C18         2.2334   -0.2153    1.2184 C.3       1 <0>        -0.1216
     23 C19         2.0565    1.3045    1.2186 C.3       1 <0>        -0.1275
     24 C20         6.7656    8.7745    0.0183 C.2       1 <0>         0.4856
     25 O2          6.6420    9.9831    0.0290 O.co2     1 <0>        -0.6288
     26 H1          4.7037    4.6408    0.0105 H         1 <0>         0.1192
     27 H2          6.6959    6.0772   -0.0027 H         1 <0>         0.1342
     28 H3          4.1832    9.5566    0.0425 H         1 <0>         0.1304
     29 H4          2.1933    8.1169    0.0454 H         1 <0>         0.1198
     30 H5          3.2427    3.5830    0.0017 H         1 <0>         0.1435
     31 H6          0.7365    7.0624    0.0471 H         1 <0>         0.1457
     32 H7         -2.1335    3.3836    0.0386 H         1 <0>         0.4233
     33 H8          0.0021   -0.0041    0.0020 H         1 <0>         0.4277
     34 H9          1.4820    1.6469   -2.1355 H         1 <0>         0.0694
     35 H10         3.0057    1.8043   -1.2310 H         1 <0>         0.0822
     36 H11         2.7467   -0.4775   -2.1787 H         1 <0>         0.0703
     37 H12         1.2228   -0.6723   -1.2793 H         1 <0>         0.0611
     38 H13         3.9734   -0.1746   -0.0519 H         1 <0>         0.0686
     39 H14         3.0969   -1.7242   -0.0546 H         1 <0>         0.0650
     40 H15         2.8009   -0.5152    2.0993 H         1 <0>         0.0704
     41 H16         1.2548   -0.6951    1.2357 H         1 <0>         0.0611
     42 H17         3.0352    1.7833    1.1872 H         1 <0>         0.0823
     43 H18         1.5337    1.6075    2.1258 H         1 <0>         0.0696
     44 O3          7.9949    8.2230    0.0053 O.co2     1 <0>        -0.7520
@<TRIPOS>BOND
     1    1    6 ar
     2    1    2 ar
     3    1   26 1
     4    2    3 ar
     5    2   27 1
     6    3    4 ar
     7    3   24 1
     8    4    5 ar
     9    4   28 1
    10    5    6 ar
    11    5   29 1
    12    6    7 1
    13    7   12 ar
    14    7    8 ar
    15    8    9 ar
    16    8   30 1
    17    9   18 1
    18    9   10 ar
    19   10   11 ar
    20   10   14 1
    21   11   12 ar
    22   11   13 1
    23   12   31 1
    24   14   15 am
    25   14   32 1
    26   15   16 2
    27   15   17 am
    28   17   18 1
    29   17   33 1
    30   18   23 1
    31   18   19 1
    32   19   20 1
    33   19   34 1
    34   19   35 1
    35   20   21 1
    36   20   36 1
    37   20   37 1
    38   21   22 1
    39   21   38 1
    40   21   39 1
    41   22   23 1
    42   22   40 1
    43   22   41 1
    44   23   42 1
    45   23   43 1
    46   24   25 2
    47   24   44 1
@<TRIPOS>MOLECULE
ZINC28377067
   32    34     0     0     0
SMALL
USER_CHARGES
8-chlorospiro[1,3-dihydroquinazoline-4,1'-cyclohexane]-2-one
@<TRIPOS>ATOM
      1 C1          2.3816    1.4172   -0.0137 C.ar      1 <0>        -0.1362
      2 C2          2.4054    0.0325   -0.0210 C.ar      1 <0>        -0.0596
      3 C3          1.2234   -0.6709   -0.0127 C.ar      1 <0>        -0.1225
      4 C4          0.0021   -0.0041    0.0020 C.ar      1 <0>         0.1955
      5 C5         -0.0168    1.3847    0.0097 C.ar      1 <0>        -0.0837
      6 C6          1.1732    2.0887    0.0021 C.ar      1 <0>        -0.0689
      7 Cl1        -1.5305    2.2344    0.0215 Cl        1 <0>        -0.0575
      8 N1         -1.1869   -0.7350    0.0085 N.am      1 <0>        -0.6779
      9 C7         -1.2224   -2.0739    0.0007 C.2       1 <0>         0.7090
     10 O1         -2.3057   -2.6260    0.0062 O.2       1 <0>        -0.5807
     11 N2         -0.1122   -2.8362   -0.0129 N.am      1 <0>        -0.7243
     12 C8          1.2025   -2.1793   -0.0187 C.3       1 <0>         0.2147
     13 C9          1.9694   -2.6621    1.2084 C.3       1 <0>        -0.1255
     14 C10         2.0209   -4.1910    1.2181 C.3       1 <0>        -0.1225
     15 C11         2.7461   -4.6833   -0.0364 C.3       1 <0>        -0.1246
     16 C12         2.0067   -4.1823   -1.2792 C.3       1 <0>        -0.1223
     17 C13         1.9547   -2.6534   -1.2579 C.3       1 <0>        -0.1254
     18 H1          3.3077    1.9729   -0.0207 H         1 <0>         0.1396
     19 H2          3.3488   -0.4932   -0.0328 H         1 <0>         0.1382
     20 H3          1.1586    3.1686    0.0082 H         1 <0>         0.1405
     21 H4         -2.1543   -0.2115    0.0206 H         1 <0>         0.4497
     22 H5         -0.1785   -3.9342   -0.0196 H         1 <0>         0.4519
     23 H6          2.9943   -2.2636    1.1804 H         1 <0>         0.0778
     24 H7          1.4635   -2.3092    2.1192 H         1 <0>         0.0677
     25 H8          2.5609   -4.5340    2.1129 H         1 <0>         0.0707
     26 H9          0.9968   -4.5923    1.2316 H         1 <0>         0.0632
     27 H10         3.7758   -4.2964   -0.0402 H         1 <0>         0.0667
     28 H11         2.7676   -5.7831   -0.0397 H         1 <0>         0.0671
     29 H12         2.5371   -4.5192   -2.1821 H         1 <0>         0.0708
     30 H13         0.9829   -4.5846   -1.2838 H         1 <0>         0.0632
     31 H14         1.4379   -2.2944   -2.1602 H         1 <0>         0.0678
     32 H15         2.9798   -2.2548   -1.2395 H         1 <0>         0.0779
@<TRIPOS>BOND
     1    1    6 ar
     2    1    2 ar
     3    1   18 1
     4    2    3 ar
     5    2   19 1
     6    3   12 1
     7    3    4 ar
     8    4    5 ar
     9    4    8 1
    10    5    6 ar
    11    5    7 1
    12    6   20 1
    13    8    9 am
    14    8   21 1
    15    9   10 2
    16    9   11 am
    17   11   12 1
    18   11   22 1
    19   12   17 1
    20   12   13 1
    21   13   14 1
    22   13   23 1
    23   13   24 1
    24   14   15 1
    25   14   25 1
    26   14   26 1
    27   15   16 1
    28   15   27 1
    29   15   28 1
    30   16   17 1
    31   16   29 1
    32   16   30 1
    33   17   31 1
    34   17   32 1
@<TRIPOS>MOLECULE
ZINC03861807
   30    31     0     0     0
SMALL
USER_CHARGES

@<TRIPOS>ATOM
      1 C1         -0.0187    1.5258    0.0104 C.3       1 <0>        -0.1415
      2 C2          0.0021   -0.0041    0.0020 C.3       1 <0>        -0.1122
      3 C3          0.7421   -0.5109    1.2415 C.3       1 <0>        -0.1434
      4 C4         -1.4333   -0.5336    0.0129 C.3       1 <0>         0.1228
      5 N1         -2.1054   -0.1483   -1.2305 N.am      1 <0>        -0.5064
      6 C5         -2.7896    1.0542   -1.3029 C.2       1 <0>         0.3270
      7 C6         -3.4188    1.3971   -2.4931 C.2       1 <0>        -0.1566
      8 C7         -3.3428    0.5129   -3.5907 C.2       1 <0>         0.5930
      9 O1         -3.8857    0.7913   -4.6449 O.2       1 <0>        -0.5148
     10 N2         -2.6613   -0.6442   -3.4587 N.am      1 <0>        -0.5518
     11 C8         -2.0526   -0.9608   -2.3028 C.2       1 <0>         0.7063
     12 O2         -1.4428   -2.0098   -2.2221 O.2       1 <0>        -0.5287
     13 C9         -2.5785   -1.5664   -4.5940 C.3       1 <0>         0.0827
     14 N3         -4.0103    2.6257   -2.2774 N.pl3     1 <0>        -0.5187
     15 H1         -4.5284    3.1372   -2.9183 H         1 <0>         0.4381
     16 C10        -3.7321    2.9790   -1.0073 C.2       1 <0>         0.2767
     17 N4         -3.0113    2.0471   -0.4377 N.2       1 <0>        -0.4957
     18 H2          1.0039    1.9031    0.0027 H         1 <0>         0.0532
     19 H3         -0.5459    1.8868   -0.8726 H         1 <0>         0.0473
     20 H4         -0.5289    1.8773    0.9072 H         1 <0>         0.0653
     21 H5          0.5123   -0.3556   -0.8948 H         1 <0>         0.0742
     22 H6          0.2319   -0.1594    2.1383 H         1 <0>         0.0596
     23 H7          0.7568   -1.6008    1.2356 H         1 <0>         0.0591
     24 H8          1.7647   -0.1336    1.2338 H         1 <0>         0.0613
     25 H9         -1.4190   -1.6203    0.0965 H         1 <0>         0.1003
     26 H10        -1.9701   -0.1109    0.8621 H         1 <0>         0.1000
     27 H11        -3.1215   -1.1486   -5.4417 H         1 <0>         0.1034
     28 H12        -1.5337   -1.7124   -4.8680 H         1 <0>         0.0826
     29 H13        -3.0188   -2.5242   -4.3168 H         1 <0>         0.0828
     30 H14        -4.0547    3.8934   -0.5315 H         1 <0>         0.2343
@<TRIPOS>BOND
     1    1    2 1
     2    1   18 1
     3    1   19 1
     4    1   20 1
     5    2    3 1
     6    2    4 1
     7    2   21 1
     8    3   22 1
     9    3   23 1
    10    3   24 1
    11    4    5 1
    12    4   25 1
    13    4   26 1
    14    5   11 am
    15    5    6 1
    16    6   17 1
    17    6    7 2
    18    7    8 1
    19    7   14 1
    20    8    9 2
    21    8   10 am
    22   10   11 am
    23   10   13 1
    24   11   12 2
    25   13   27 1
    26   13   28 1
    27   13   29 1
    28   14   15 1
    29   14   16 1
    30   16   17 2
    31   16   30 1
@<TRIPOS>MOLECULE
ZINC04844756
   28    28     0     0     0
SMALL
USER_CHARGES

@<TRIPOS>ATOM
      1 C1          0.2784    1.3205   -0.3023 C.3       1 <0>        -0.1916
      2 C2          0.5072   -0.1678   -0.2422 C.ar      1 <0>         0.0696
      3 C3          0.6880   -0.8871   -1.4090 C.ar      1 <0>        -0.1380
      4 C4          0.8978   -2.2521   -1.3538 C.ar      1 <0>         0.0010
      5 C5          0.9275   -2.8982   -0.1319 C.ar      1 <0>        -0.0761
      6 C6          0.7477   -2.1790    1.0346 C.ar      1 <0>         0.0481
      7 C7          0.5420   -0.8129    0.9797 C.ar      1 <0>        -0.6883
      8 S1          0.3189    0.1049    2.4671 S.o2      1 <0>         2.6969
      9 O1         -0.8197    0.9314    2.2675 O.2       1 <0>        -0.9405
     10 O2          0.4056   -0.8270    3.5363 O.2       1 <0>        -0.9416
     11 N1          1.6195    1.1191    2.6165 N.pl3     1 <0>        -0.9999
     12 C8          1.5096    2.5181    2.1959 C.3       1 <0>         0.0722
     13 C9          2.8800    0.6172    3.1693 C.3       1 <0>         0.0785
     14 N2          1.1512   -4.3602   -0.0729 N.pl3     1 <0>         0.0324
     15 O3          1.3081   -4.9893   -1.0933 O.2       1 <0>        -0.1509
     16 O4          1.1771   -4.9251    0.9957 O.3       1 <0>        -0.1483
     17 H1          1.2233    1.8401   -0.1431 H         1 <0>         0.1021
     18 H2         -0.1227    1.5872   -1.2801 H         1 <0>         0.0984
     19 H3         -0.4309    1.6106    0.4729 H         1 <0>         0.1190
     20 H4          0.6649   -0.3824   -2.3635 H         1 <0>         0.1590
     21 H5          1.0383   -2.8141   -2.2653 H         1 <0>         0.1637
     22 H6          0.7704   -2.6837    1.9891 H         1 <0>         0.1735
     23 H7          1.2660    3.1387    3.0582 H         1 <0>         0.0675
     24 H8          2.4580    2.8448    1.7694 H         1 <0>         0.0771
     25 H9          0.7230    2.6116    1.4471 H         1 <0>         0.0872
     26 H10         3.5034    0.2332    2.3619 H         1 <0>         0.0575
     27 H11         3.4022    1.4279    3.6774 H         1 <0>         0.0852
     28 H12         2.6721   -0.1828    3.8798 H         1 <0>         0.0861
@<TRIPOS>BOND
     1    1    2 1
     2    1   17 1
     3    1   18 1
     4    1   19 1
     5    2    7 ar
     6    2    3 ar
     7    3    4 ar
     8    3   20 1
     9    4    5 ar
    10    4   21 1
    11    5    6 ar
    12    5   14 1
    13    6    7 ar
    14    6   22 1
    15    7    8 1
    16    8    9 2
    17    8   10 2
    18    8   11 1
    19   11   12 1
    20   11   13 1
    21   12   23 1
    22   12   24 1
    23   12   25 1
    24   13   26 1
    25   13   27 1
    26   13   28 1
    27   14   15 2
    28   14   16 1
@<TRIPOS>MOLECULE
ZINC00643046
   76    79     0     0     0
SMALL
USER_CHARGES

@<TRIPOS>ATOM
      1 C1          0.4883    2.4897    1.2990 C.3       1 <0>        -0.1142
      2 C2          1.1580    2.1388    2.6297 C.3       1 <0>        -0.1362
      3 C3          1.3103    0.6181    2.7347 C.3       1 <0>         0.1570
      4 N1          2.0305    0.1319    1.5500 N.pl3     1 <0>        -0.6468
      5 C4          1.5224    0.4890    0.2185 C.3       1 <0>         0.1574
      6 C5          1.3678    2.0112    0.1416 C.3       1 <0>        -0.1364
      7 C6          3.1637   -0.6453    1.6854 C.ar      1 <0>         0.5085
      8 C7          3.0733   -2.0580    1.7467 C.ar      1 <0>         0.0614
      9 C8          4.2673   -2.7976    1.8855 C.ar      1 <0>         0.0615
     10 C9          4.1770   -4.2103    1.9469 C.ar      1 <0>         0.5084
     11 N2          2.9771   -4.7656    1.8709 N.ar      1 <0>        -0.5394
     12 C10         1.8782   -4.0279    1.7403 C.ar      1 <0>         0.5543
     13 N3          1.9084   -2.7098    1.6788 N.ar      1 <0>        -0.5235
     14 N4          0.6525   -4.6689    1.6658 N.pl3     1 <0>        -0.5657
     15 C11        -0.5766   -3.8848    1.5217 C.3       1 <0>         0.1412
     16 C12        -0.8807   -3.6815    0.0361 C.3       1 <0>         0.0611
     17 O1         -1.1650   -4.9445   -0.5691 O.3       1 <0>        -0.5712
     18 C13         0.5852   -6.1309    1.7310 C.3       1 <0>         0.1388
     19 C14         0.4380   -6.5701    3.1892 C.3       1 <0>         0.0609
     20 O2         -0.8147   -6.1108    3.7009 O.3       1 <0>        -0.5703
     21 N5          5.3102   -4.9876    2.0819 N.pl3     1 <0>        -0.6466
     22 C15         5.8166   -5.3477    3.4132 C.3       1 <0>         0.1569
     23 C16         5.9722   -6.8700    3.4864 C.3       1 <0>        -0.1363
     24 C17         6.8536   -7.3449    2.3290 C.3       1 <0>        -0.1141
     25 C18         6.1855   -6.9910    0.9983 C.3       1 <0>        -0.1368
     26 C19         6.0290   -5.4752    0.8969 C.3       1 <0>         0.1575
     27 N6          5.4322   -2.1458    1.9543 N.ar      1 <0>        -0.5233
     28 C20         5.4623   -0.8277    1.8928 C.ar      1 <0>         0.5543
     29 N7          4.3640   -0.0904    1.7559 N.ar      1 <0>        -0.5392
     30 N8          6.6881   -0.1867    1.9678 N.pl3     1 <0>        -0.5657
     31 C21         7.9171   -0.9709    2.1123 C.3       1 <0>         0.1413
     32 C22         8.4692   -1.3136    0.7271 C.3       1 <0>         0.0611
     33 O3          8.8633   -0.1124    0.0609 O.3       1 <0>        -0.5711
     34 C23         6.7554    1.2753    1.9026 C.3       1 <0>         0.1387
     35 C24         6.6545    1.8540    3.3153 C.3       1 <0>         0.0609
     36 O4          7.7974    1.4565    4.0756 O.3       1 <0>        -0.5703
     37 H1         -0.4844    2.0011    1.2421 H         1 <0>         0.0624
     38 H2          0.3565    3.5696    1.2325 H         1 <0>         0.0610
     39 H3          2.1412    2.6070    2.6767 H         1 <0>         0.0658
     40 H4          0.5425    2.5006    3.4533 H         1 <0>         0.0687
     41 H5          1.8745    0.3686    3.6333 H         1 <0>         0.0616
     42 H6          0.3248    0.1544    2.7790 H         1 <0>         0.0608
     43 H7          2.2266    0.1543   -0.5432 H         1 <0>         0.0616
     44 H8          0.5542    0.0148    0.0576 H         1 <0>         0.0598
     45 H9          0.9016    2.2821   -0.8057 H         1 <0>         0.0686
     46 H10         2.3490    2.4805    0.2121 H         1 <0>         0.0663
     47 H11        -1.4038   -4.4160    1.9926 H         1 <0>         0.0919
     48 H12        -0.4472   -2.9149    2.0021 H         1 <0>         0.0972
     49 H13        -1.7438   -3.0246   -0.0716 H         1 <0>         0.0528
     50 H14        -0.0175   -3.2303   -0.4531 H         1 <0>         0.0456
     51 H15        -1.3673   -4.8916   -1.5132 H         1 <0>         0.3764
     52 H16        -0.2732   -6.4810    1.1577 H         1 <0>         0.0932
     53 H17         1.4983   -6.5556    1.3140 H         1 <0>         0.0953
     54 H18         0.4771   -7.6579    3.2467 H         1 <0>         0.0527
     55 H19         1.2495   -6.1456    3.7802 H         1 <0>         0.0445
     56 H20        -0.9758   -6.3537    4.6229 H         1 <0>         0.3766
     57 H21         6.7842   -4.8733    3.5767 H         1 <0>         0.0609
     58 H22         5.1111   -5.0155    4.1748 H         1 <0>         0.0615
     59 H23         6.4372   -7.1430    4.4336 H         1 <0>         0.0688
     60 H24         4.9913   -7.3398    3.4133 H         1 <0>         0.0658
     61 H25         7.8259   -6.8558    2.3885 H         1 <0>         0.0624
     62 H26         6.9861   -8.4249    2.3929 H         1 <0>         0.0611
     63 H27         6.8025   -7.3503    0.1746 H         1 <0>         0.0691
     64 H28         5.2027   -7.4597    0.9486 H         1 <0>         0.0661
     65 H29         5.4635   -5.2271   -0.0013 H         1 <0>         0.0615
     66 H30         7.0143   -5.0114    0.8506 H         1 <0>         0.0595
     67 H31         8.6559   -0.3900    2.6644 H         1 <0>         0.0919
     68 H32         7.6994   -1.8910    2.6545 H         1 <0>         0.0972
     69 H33         9.3325   -1.9706    0.8325 H         1 <0>         0.0527
     70 H34         7.6986   -1.8169    0.1432 H         1 <0>         0.0456
     71 H35         9.2237   -0.2542   -0.8252 H         1 <0>         0.3764
     72 H36         7.7021    1.5757    1.4536 H         1 <0>         0.0932
     73 H37         5.9306    1.6503    1.2966 H         1 <0>         0.0954
     74 H38         6.6152    2.9419    3.2604 H         1 <0>         0.0528
     75 H39         5.7504    1.4816    3.7968 H         1 <0>         0.0444
     76 H40         7.8004    1.7883    4.9839 H         1 <0>         0.3766
@<TRIPOS>BOND
     1    1    6 1
     2    1    2 1
     3    1   37 1
     4    1   38 1
     5    2    3 1
     6    2   39 1
     7    2   40 1
     8    3    4 1
     9    3   41 1
    10    3   42 1
    11    4    5 1
    12    4    7 1
    13    5    6 1
    14    5   43 1
    15    5   44 1
    16    6   45 1
    17    6   46 1
    18    7   29 ar
    19    7    8 ar
    20    8   13 ar
    21    8    9 ar
    22    9   10 ar
    23    9   27 ar
    24   10   11 ar
    25   10   21 1
    26   11   12 ar
    27   12   13 ar
    28   12   14 1
    29   14   15 1
    30   14   18 1
    31   15   16 1
    32   15   47 1
    33   15   48 1
    34   16   17 1
    35   16   49 1
    36   16   50 1
    37   17   51 1
    38   18   19 1
    39   18   52 1
    40   18   53 1
    41   19   20 1
    42   19   54 1
    43   19   55 1
    44   20   56 1
    45   21   26 1
    46   21   22 1
    47   22   23 1
    48   22   57 1
    49   22   58 1
    50   23   24 1
    51   23   59 1
    52   23   60 1
    53   24   25 1
    54   24   61 1
    55   24   62 1
    56   25   26 1
    57   25   63 1
    58   25   64 1
    59   26   65 1
    60   26   66 1
    61   27   28 ar
    62   28   29 ar
    63   28   30 1
    64   30   31 1
    65   30   34 1
    66   31   32 1
    67   31   67 1
    68   31   68 1
    69   32   33 1
    70   32   69 1
    71   32   70 1
    72   33   71 1
    73   34   35 1
    74   34   72 1
    75   34   73 1
    76   35   36 1
    77   35   74 1
    78   35   75 1
    79   36   76 1
