@<TRIPOS>MOLECULE
ZINC05764539
   50    53     0     0     0
SMALL
USER_CHARGES

@<TRIPOS>ATOM
      1 C1         -0.0187    1.5258    0.0104 C.3       1 <0>        -0.1353
      2 C2          0.0021   -0.0041    0.0020 C.3       1 <0>        -0.0445
      3 C3         -1.4159   -0.5378    0.0733 C.3       1 <0>        -0.1007
      4 C4         -2.0779    0.0979    1.3061 C.3       1 <0>        -0.1178
      5 C5         -1.2986   -0.2023    2.5830 C.3       1 <0>        -0.0699
      6 H1         -1.3483   -1.2722    2.7852 H         1 <0>         0.0709
      7 C6          0.1742    0.2154    2.4640 C.3       1 <0>        -0.0750
      8 H2          0.2459    1.2943    2.3265 H         1 <0>         0.0873
      9 C7          0.7513   -0.5273    1.2568 C.3       1 <0>        -0.0821
     10 H3          0.6132   -1.6034    1.3615 H         1 <0>         0.0785
     11 C8          2.2066   -0.1921    0.9116 C.3       1 <0>        -0.1134
     12 C9          2.3043   -0.5733   -0.5908 C.3       1 <0>        -0.1451
     13 C10         0.8630   -0.5032   -1.1539 C.3       1 <0>         0.2500
     14 C11         0.4171   -1.8391   -1.5821 C.1       1 <0>        -0.2093
     15 C12         0.0615   -2.9046   -1.9236 C.1       1 <0>        -0.1813
     16 O1          0.8030    0.4141   -2.2480 O.3       1 <0>        -0.5405
     17 C13         0.9160   -0.2005    3.7377 C.3       1 <0>        -0.1127
     18 C14         0.3580    0.5868    4.9251 C.3       1 <0>        -0.0900
     19 C15        -1.1430    0.3704    4.9925 C.2       1 <0>        -0.0526
     20 C16        -1.6660    0.0339    6.1660 C.2       1 <0>        -0.1289
     21 C17        -3.1197   -0.1715    6.2922 C.2       1 <0>         0.1667
     22 N1         -3.6293   -0.8741    7.2537 N.2       1 <0>        -0.3367
     23 O2         -5.0323   -1.0465    7.3380 O.3       1 <0>        -0.4127
     24 C18        -3.9866    0.4851    5.2352 C.3       1 <0>        -0.1155
     25 C19        -3.4002    0.1190    3.8727 C.3       1 <0>        -0.1077
     26 C20        -1.9382    0.5561    3.7529 C.3       1 <0>        -0.0542
     27 H4         -1.9283    1.6187    3.5102 H         1 <0>         0.0853
     28 H5          1.0039    1.9031    0.0027 H         1 <0>         0.0575
     29 H6         -0.5459    1.8868   -0.8726 H         1 <0>         0.0619
     30 H7         -0.5289    1.8773    0.9072 H         1 <0>         0.0647
     31 H8         -1.9632   -0.2592   -0.8272 H         1 <0>         0.0661
     32 H9         -1.3995   -1.6226    0.1785 H         1 <0>         0.0640
     33 H10        -2.1279    1.1776    1.1657 H         1 <0>         0.0695
     34 H11        -3.0902   -0.2933    1.4073 H         1 <0>         0.0653
     35 H12         2.4015    0.8710    1.0532 H         1 <0>         0.0753
     36 H13         2.8927   -0.7938    1.5077 H         1 <0>         0.0703
     37 H14         2.9458    0.1347   -1.1154 H         1 <0>         0.0806
     38 H15         2.6980   -1.5843   -0.6953 H         1 <0>         0.0718
     39 H16        -0.2565   -3.8575   -2.2291 H         1 <0>         0.2179
     40 H17         1.3317    0.1490   -3.0130 H         1 <0>         0.3782
     41 H18         0.7745   -1.2676    3.9095 H         1 <0>         0.0652
     42 H19         1.9790    0.0133    3.6262 H         1 <0>         0.0712
     43 H20         0.8199    0.2337    5.8471 H         1 <0>         0.0761
     44 H21         0.5686    1.6478    4.7915 H         1 <0>         0.0811
     45 H22        -1.0262   -0.0888    7.0274 H         1 <0>         0.1308
     46 H23        -5.3180   -1.5856    8.0882 H         1 <0>         0.4036
     47 H24        -5.0085    0.1136    5.3109 H         1 <0>         0.0861
     48 H25        -3.9741    1.5672    5.3654 H         1 <0>         0.0873
     49 H26        -3.4581   -0.9614    3.7399 H         1 <0>         0.0651
     50 H27        -3.9869    0.6031    3.0920 H         1 <0>         0.0776
@<TRIPOS>BOND
     1    1    2 1
     2    1   28 1
     3    1   29 1
     4    1   30 1
     5    2    9 1
     6    2   13 1
     7    2    3 1
     8    3    4 1
     9    3   31 1
    10    3   32 1
    11    4    5 1
    12    4   33 1
    13    4   34 1
    14    5    6 1
    15    5   26 1
    16    5    7 1
    17    7    8 1
    18    7    9 1
    19    7   17 1
    20    9   10 1
    21    9   11 1
    22   11   12 1
    23   11   35 1
    24   11   36 1
    25   12   13 1
    26   12   37 1
    27   12   38 1
    28   13   14 1
    29   13   16 1
    30   14   15 3
    31   15   39 1
    32   16   40 1
    33   17   18 1
    34   17   41 1
    35   17   42 1
    36   18   19 1
    37   18   43 1
    38   18   44 1
    39   19   26 1
    40   19   20 2
    41   20   21 1
    42   20   45 1
    43   21   22 2
    44   21   24 1
    45   22   23 1
    46   23   46 1
    47   24   25 1
    48   24   47 1
    49   24   48 1
    50   25   26 1
    51   25   49 1
    52   25   50 1
    53   26   27 1
@<TRIPOS>MOLECULE
ZINC03860856
   53    55     0     0     0
SMALL
USER_CHARGES

@<TRIPOS>ATOM
      1 C1          0.1067    1.6831   -0.0275 C.3       1 <0>        -0.1453
      2 C2          0.1216    0.1539   -0.0746 C.3       1 <0>        -0.0602
      3 C3          0.8637   -0.3105   -1.3294 C.3       1 <0>        -0.1459
      4 C4          0.8212   -0.3796    1.1493 C.ar      1 <0>        -0.0665
      5 C5          2.1388   -0.0417    1.3955 C.ar      1 <0>        -0.1126
      6 C6          2.7712   -0.5346    2.5201 C.ar      1 <0>        -0.1128
      7 C7          2.0929   -1.3619    3.3990 C.ar      1 <0>        -0.0798
      8 C8          0.7807   -1.7058    3.1587 C.ar      1 <0>        -0.0763
      9 C9          0.1486   -1.2061    2.0238 C.ar      1 <0>        -0.1202
     10 C10        -0.0277   -2.6004    4.0577 C.3       1 <0>        -0.0819
     11 C11         0.8242   -3.2507    5.1495 C.3       1 <0>        -0.1170
     12 C12         1.7934   -2.1988    5.6854 C.3       1 <0>        -0.0616
     13 H1          1.1845   -1.2682    5.8131 H         1 <0>         0.0748
     14 C13         2.8253   -1.8788    4.6196 C.3       1 <0>         0.0021
     15 C14         3.8132   -0.8302    5.1219 C.3       1 <0>        -0.1122
     16 C15         4.4731   -1.3252    6.4101 C.3       1 <0>        -0.1182
     17 C16         3.4189   -1.5360    7.4888 C.3       1 <0>        -0.1282
     18 C17         2.3430   -2.5324    7.0539 C.3       1 <0>        -0.0564
     19 C18         2.8846   -3.9593    7.1382 C.3       1 <0>        -0.1735
     20 C19         1.1903   -2.4172    8.0806 C.3       1 <0>        -0.0153
     21 N1          1.6959   -2.7366    9.4223 N.4       1 <0>        -0.6394
     22 C20         3.6038   -3.1158    4.1730 C.3       1 <0>        -0.1495
     23 H2          1.1307    2.0559   -0.0029 H         1 <0>         0.0571
     24 H3         -0.3992    2.0690   -0.9125 H         1 <0>         0.0615
     25 H4         -0.4220    2.0140    0.8664 H         1 <0>         0.0548
     26 H5         -0.9024   -0.2188   -0.0992 H         1 <0>         0.0775
     27 H6          1.8877    0.0623   -1.3047 H         1 <0>         0.0572
     28 H7          0.8743   -1.3999   -1.3629 H         1 <0>         0.0558
     29 H8          0.3578    0.0754   -2.2144 H         1 <0>         0.0616
     30 H9          2.6720    0.6029    0.7133 H         1 <0>         0.1230
     31 H10         3.8014   -0.2692    2.7040 H         1 <0>         0.1225
     32 H11        -0.8801   -1.4699    1.8284 H         1 <0>         0.1193
     33 H12        -0.8158   -2.0114    4.5306 H         1 <0>         0.0743
     34 H13        -0.4905   -3.3854    3.4571 H         1 <0>         0.0791
     35 H14         0.1570   -3.5891    5.9489 H         1 <0>         0.0628
     36 H15         1.3408   -4.1150    4.7469 H         1 <0>         0.0790
     37 H16         4.5822   -0.6598    4.3663 H         1 <0>         0.0758
     38 H17         3.2856    0.1047    5.3161 H         1 <0>         0.0686
     39 H18         5.0282   -2.2411    6.2340 H         1 <0>         0.0744
     40 H19         5.1815   -0.5604    6.7546 H         1 <0>         0.0717
     41 H20         3.9022   -1.9075    8.3973 H         1 <0>         0.0616
     42 H21         2.9441   -0.5781    7.7211 H         1 <0>         0.0751
     43 H22         3.7452   -4.0610    6.4770 H         1 <0>         0.0932
     44 H23         3.1867   -4.1733    8.1634 H         1 <0>         0.0496
     45 H24         2.1080   -4.6612    6.8342 H         1 <0>         0.0782
     46 H25         0.7972   -1.4006    8.0729 H         1 <0>         0.1357
     47 H26         0.3966   -3.1158    7.8156 H         1 <0>         0.1367
     48 H27         2.0599   -3.6777    9.4294 H         1 <0>         0.4329
     49 H28         2.4307   -2.0900    9.6676 H         1 <0>         0.4329
     50 H29         4.2191   -2.8654    3.3088 H         1 <0>         0.0627
     51 H30         4.2428   -3.4567    4.9875 H         1 <0>         0.0619
     52 H31         2.9046   -3.9076    3.9039 H         1 <0>         0.0620
     53 H32         0.9446   -2.6615   10.0916 H         1 <0>         0.4377
@<TRIPOS>BOND
     1    1    2 1
     2    1   23 1
     3    1   24 1
     4    1   25 1
     5    2    3 1
     6    2    4 1
     7    2   26 1
     8    3   27 1
     9    3   28 1
    10    3   29 1
    11    4    9 ar
    12    4    5 ar
    13    5    6 ar
    14    5   30 1
    15    6    7 ar
    16    6   31 1
    17    7   14 1
    18    7    8 ar
    19    8    9 ar
    20    8   10 1
    21    9   32 1
    22   10   11 1
    23   10   33 1
    24   10   34 1
    25   11   12 1
    26   11   35 1
    27   11   36 1
    28   12   13 1
    29   12   18 1
    30   12   14 1
    31   14   15 1
    32   14   22 1
    33   15   16 1
    34   15   37 1
    35   15   38 1
    36   16   17 1
    37   16   39 1
    38   16   40 1
    39   17   18 1
    40   17   41 1
    41   17   42 1
    42   18   19 1
    43   18   20 1
    44   19   43 1
    45   19   44 1
    46   19   45 1
    47   20   21 1
    48   20   46 1
    49   20   47 1
    50   21   48 1
    51   21   49 1
    52   21   53 1
    53   22   50 1
    54   22   51 1
    55   22   52 1
