@<TRIPOS>MOLECULE
ZINC03830713
   56    56     0     0     0
SMALL
USER_CHARGES

@<TRIPOS>ATOM
      1 C1          1.1435    1.5780    0.1841 C.3       1 <0>        -0.1534
      2 C2          1.1566    0.0481    0.1856 C.3       1 <0>        -0.1262
      3 C3          1.6249   -0.4592   -1.1798 C.3       1 <0>        -0.1204
      4 C4          1.6381   -1.9892   -1.1783 C.3       1 <0>        -0.1181
      5 C5          2.1064   -2.4965   -2.5437 C.3       1 <0>        -0.1441
      6 C6          2.1195   -4.0264   -2.5422 C.3       1 <0>         0.1339
      7 H1          1.1360   -4.3979   -2.2545 H         1 <0>         0.1099
      8 C7          2.4618   -4.5271   -3.9218 C.2       1 <0>        -0.1807
      9 C8          3.4668   -5.3505   -4.0891 C.2       1 <0>        -0.1418
     10 C9          3.8091   -5.8513   -5.4686 C.3       1 <0>        -0.0473
     11 H2          3.1330   -5.4234   -6.2088 H         1 <0>         0.0978
     12 C10         5.2816   -5.5181   -5.8190 C.3       1 <0>         0.1132
     13 H3          5.9219   -5.6238   -4.9433 H         1 <0>         0.0737
     14 C11         5.6200   -6.5928   -6.8819 C.3       1 <0>        -0.2190
     15 C12         4.9054   -7.8420   -6.3978 C.2       1 <0>         0.3763
     16 O1          5.1958   -8.9826   -6.6680 O.2       1 <0>        -0.4319
     17 C13         3.7574   -7.3925   -5.5141 C.3       1 <0>        -0.1326
     18 H4          3.8794   -7.7992   -4.5102 H         1 <0>         0.1096
     19 C14         2.4245   -7.8537   -6.1072 C.3       1 <0>        -0.0812
     20 C15         2.3350   -9.3562   -6.0335 C.2       1 <0>        -0.1876
     21 C16         1.2888   -9.9240   -5.4864 C.2       1 <0>        -0.1312
     22 C17         0.1019   -9.0874   -5.0835 C.3       1 <0>        -0.1053
     23 C18        -1.1656   -9.6598   -5.7213 C.3       1 <0>        -0.0865
     24 C19        -2.3706   -8.8104   -5.3122 C.3       1 <0>        -0.1829
     25 C20        -3.6190   -9.3742   -5.9404 C.2       1 <0>         0.4875
     26 O2         -3.5513  -10.3637   -6.6495 O.co2     1 <0>        -0.6993
     27 O3         -4.6968   -8.8408   -5.7395 O.co2     1 <0>        -0.7094
     28 O4          5.3883   -4.2031   -6.3682 O.3       1 <0>        -0.5536
     29 O5          3.0966   -4.4935   -1.6099 O.3       1 <0>        -0.5569
     30 H5          2.1483    1.9498   -0.0165 H         1 <0>         0.0521
     31 H6          0.4630    1.9348   -0.5890 H         1 <0>         0.0533
     32 H7          0.8099    1.9395    1.1568 H         1 <0>         0.0523
     33 H8          1.8372   -0.3087    0.9587 H         1 <0>         0.0602
     34 H9          0.1518   -0.3237    0.3862 H         1 <0>         0.0615
     35 H10         0.9444   -0.1024   -1.9529 H         1 <0>         0.0606
     36 H11         2.6297   -0.0874   -1.3804 H         1 <0>         0.0589
     37 H12         2.3186   -2.3459   -0.4052 H         1 <0>         0.0674
     38 H13         0.6333   -2.3609   -0.9777 H         1 <0>         0.0627
     39 H14         1.4258   -2.1397   -3.3168 H         1 <0>         0.0733
     40 H15         3.1112   -2.1247   -2.7443 H         1 <0>         0.0652
     41 H16         1.8785   -4.2072   -4.7725 H         1 <0>         0.1180
     42 H17         4.0501   -5.6705   -3.2383 H         1 <0>         0.1187
     43 H18         5.2429   -6.2932   -7.8597 H         1 <0>         0.1142
     44 H19         6.6961   -6.7616   -6.9233 H         1 <0>         0.0938
     45 H20         1.6034   -7.4127   -5.5421 H         1 <0>         0.0927
     46 H21         2.3609   -7.5366   -7.1481 H         1 <0>         0.0696
     47 H22         3.1333   -9.9650   -6.4317 H         1 <0>         0.1146
     48 H23         1.2770  -10.9917   -5.3242 H         1 <0>         0.1080
     49 H24         0.0002   -9.0999   -3.9984 H         1 <0>         0.0647
     50 H25         0.2482   -8.0620   -5.4230 H         1 <0>         0.0685
     51 H26        -1.0638   -9.6473   -6.8065 H         1 <0>         0.0585
     52 H27        -1.3118  -10.6852   -5.3819 H         1 <0>         0.0589
     53 H28        -2.4724   -8.8229   -4.2271 H         1 <0>         0.0550
     54 H29        -2.2243   -7.7850   -5.6517 H         1 <0>         0.0541
     55 H30         6.2905   -3.9473   -6.6039 H         1 <0>         0.3797
     56 H31         3.9974   -4.2006   -1.8044 H         1 <0>         0.3713
@<TRIPOS>BOND
     1    1    2 1
     2    1   30 1
     3    1   31 1
     4    1   32 1
     5    2    3 1
     6    2   33 1
     7    2   34 1
     8    3    4 1
     9    3   35 1
    10    3   36 1
    11    4    5 1
    12    4   37 1
    13    4   38 1
    14    5    6 1
    15    5   39 1
    16    5   40 1
    17    6    7 1
    18    6    8 1
    19    6   29 1
    20    8    9 2
    21    8   41 1
    22    9   10 1
    23    9   42 1
    24   10   11 1
    25   10   17 1
    26   10   12 1
    27   12   13 1
    28   12   14 1
    29   12   28 1
    30   14   15 1
    31   14   43 1
    32   14   44 1
    33   15   16 2
    34   15   17 1
    35   17   18 1
    36   17   19 1
    37   19   20 1
    38   19   45 1
    39   19   46 1
    40   20   21 2
    41   20   47 1
    42   21   22 1
    43   21   48 1
    44   22   23 1
    45   22   49 1
    46   22   50 1
    47   23   24 1
    48   23   51 1
    49   23   52 1
    50   24   25 1
    51   24   53 1
    52   24   54 1
    53   25   26 2
    54   25   27 1
    55   28   55 1
    56   29   56 1
