@<TRIPOS>MOLECULE
ZINC00680551
   43    46     0     0     0
SMALL
USER_CHARGES
2-[4-(1-amino-2,4-dicyano-pyrido[1,6-a]benzimidazol-3-yl)phenoxy]acetamide
@<TRIPOS>ATOM
      1 C1         -1.2393    3.1379   -0.1956 C.ar      1 <0>        -0.1002
      2 C2         -1.2133    1.7508   -0.1732 C.ar      1 <0>        -0.1008
      3 C3         -0.0115    1.0748   -0.1238 C.ar      1 <0>        -0.0966
      4 C4          1.1781    1.7877   -0.1064 C.ar      1 <0>         0.0097
      5 C5          1.1530    3.1929   -0.1337 C.ar      1 <0>         0.1003
      6 C6         -0.0779    3.8571   -0.1786 C.ar      1 <0>        -0.0690
      7 N1          2.4380    3.6202   -0.1084 N.2       1 <0>        -0.4767
      8 C7          3.2524    2.5821   -0.0676 C.2       1 <0>         0.3675
      9 N2          2.5146    1.4219   -0.0647 N.pl3     1 <0>        -0.4255
     10 C8          3.1250    0.2020   -0.0253 C.2       1 <0>         0.5216
     11 C9          4.5110    0.0840    0.0134 C.2       1 <0>        -0.1821
     12 C10         5.3270    1.2429    0.0125 C.2       1 <0>         0.1658
     13 C11         4.7172    2.5044   -0.0281 C.2       1 <0>        -0.0713
     14 C12         5.5100    3.6969   -0.0305 C.1       1 <0>         0.2749
     15 N3          6.1390    4.6429   -0.0324 N.1       1 <0>        -0.3994
     16 C13         6.7985    1.1230    0.0528 C.ar      1 <0>        -0.1247
     17 C14         7.5104    1.6012    1.1558 C.ar      1 <0>        -0.0409
     18 C15         8.8824    1.4831    1.1916 C.ar      1 <0>        -0.2091
     19 C16         9.5593    0.8990    0.1279 C.ar      1 <0>         0.1501
     20 C17         8.8556    0.4269   -0.9733 C.ar      1 <0>        -0.1436
     21 C18         7.4830    0.5363   -1.0146 C.ar      1 <0>        -0.0428
     22 O1         10.9122    0.7896    0.1645 O.3       1 <0>        -0.2852
     23 C19        11.5728    1.2954    1.3264 C.3       1 <0>         0.0363
     24 C20        13.0592    1.0885    1.1892 C.2       1 <0>         0.5195
     25 O2         13.5086    0.5600    0.1944 O.2       1 <0>        -0.5159
     26 N4         13.8891    1.4908    2.1720 N.am      1 <0>        -0.8495
     27 C21         5.1153   -1.2136    0.0536 C.1       1 <0>         0.2641
     28 N5          5.5947   -2.2430    0.0856 N.1       1 <0>        -0.3991
     29 N6          2.3574   -0.9298   -0.0232 N.pl3     1 <0>        -0.8236
     30 H1         -2.1872    3.6542   -0.2306 H         1 <0>         0.1397
     31 H2         -2.1401    1.1967   -0.1913 H         1 <0>         0.1401
     32 H3          0.0030   -0.0049   -0.1034 H         1 <0>         0.1214
     33 H4         -0.1098    4.9364   -0.1995 H         1 <0>         0.1411
     34 H5          6.9853    2.0590    1.9812 H         1 <0>         0.1339
     35 H6          9.4330    1.8488    2.0457 H         1 <0>         0.1358
     36 H7          9.3855   -0.0261   -1.7982 H         1 <0>         0.1416
     37 H8          6.9368    0.1695   -1.8711 H         1 <0>         0.1374
     38 H9         11.3621    2.3599    1.4296 H         1 <0>         0.0986
     39 H10        11.2122    0.7664    2.2085 H         1 <0>         0.0979
     40 H11        13.5297    1.9136    2.9676 H         1 <0>         0.4040
     41 H12        14.8459    1.3577    2.0837 H         1 <0>         0.4108
     42 H13         1.3933   -0.8619    0.0594 H         1 <0>         0.4145
     43 H14         2.7770   -1.8006   -0.1044 H         1 <0>         0.4293
@<TRIPOS>BOND
     1    1    6 ar
     2    1    2 ar
     3    1   30 1
     4    2    3 ar
     5    2   31 1
     6    3    4 ar
     7    3   32 1
     8    4    9 1
     9    4    5 ar
    10    5    6 ar
    11    5    7 1
    12    6   33 1
    13    7    8 2
    14    8   13 1
    15    8    9 1
    16    9   10 1
    17   10   11 2
    18   10   29 1
    19   11   12 1
    20   11   27 1
    21   12   13 2
    22   12   16 1
    23   13   14 1
    24   14   15 3
    25   16   21 ar
    26   16   17 ar
    27   17   18 ar
    28   17   34 1
    29   18   19 ar
    30   18   35 1
    31   19   20 ar
    32   19   22 1
    33   20   21 ar
    34   20   36 1
    35   21   37 1
    36   22   23 1
    37   23   24 1
    38   23   38 1
    39   23   39 1
    40   24   25 2
    41   24   26 am
    42   26   40 1
    43   26   41 1
    44   27   28 3
    45   29   42 1
    46   29   43 1
@<TRIPOS>MOLECULE
ZINC00187107
   26    28     0     0     0
SMALL
USER_CHARGES

@<TRIPOS>ATOM
      1 C1         -0.0184    1.5028    0.0103 C.3       1 <0>        -0.1009
      2 C2          0.0021   -0.0041    0.0020 C.ar      1 <0>         0.1772
      3 C3          0.0054   -0.6710   -1.2063 C.ar      1 <0>        -0.1962
      4 C4          0.0249   -2.0656   -1.2050 C.ar      1 <0>        -0.0266
      5 C5          0.0404   -2.7400    0.0422 C.ar      1 <0>        -0.2845
      6 C6          0.0360   -1.9802    1.2187 C.ar      1 <0>         0.3792
      7 S1          0.0549   -2.7835    2.7868 S.3       1 <0>        -0.7957
      8 N1          0.0218   -0.6551    1.1518 N.ar      1 <0>        -0.4962
      9 C7          0.0582   -4.1661   -0.2706 C.2       1 <0>         0.5263
     10 O1          0.0741   -5.0703    0.5439 O.2       1 <0>        -0.4072
     11 O2          0.0535   -4.3157   -1.6075 O.3       1 <0>        -0.2648
     12 C8          0.0339   -3.1104   -2.2284 C.2       1 <0>         0.1276
     13 C9          0.0237   -2.9079   -3.5719 C.2       1 <0>        -0.0985
     14 C10         0.0344   -4.0156   -4.4554 C.2       1 <0>         0.0298
     15 C11         0.0315   -3.9559   -5.8330 C.2       1 <0>        -0.1983
     16 C12         0.0462   -5.2841   -6.2907 C.2       1 <0>        -0.2164
     17 C13         0.0572   -6.0816   -5.2013 C.2       1 <0>        -0.0384
     18 O3          0.0551   -5.3164   -4.0989 O.3       1 <0>        -0.1539
     19 H1          1.0042    1.8801    0.0026 H         1 <0>         0.0776
     20 H2         -0.5455    1.8639   -0.8728 H         1 <0>         0.0726
     21 H3         -0.5286    1.8543    0.9071 H         1 <0>         0.0772
     22 H4         -0.0071   -0.1226   -2.1366 H         1 <0>         0.1335
     23 H5          0.0073   -1.9026   -3.9663 H         1 <0>         0.1778
     24 H6          0.0197   -3.0633   -6.4409 H         1 <0>         0.1512
     25 H7          0.0478   -5.6068   -7.3213 H         1 <0>         0.1476
     26 H8          0.0693   -7.1615   -5.2149 H         1 <0>         0.2003
@<TRIPOS>BOND
     1    1    2 1
     2    1   19 1
     3    1   20 1
     4    1   21 1
     5    2    8 ar
     6    2    3 ar
     7    3    4 ar
     8    3   22 1
     9    4   12 1
    10    4    5 ar
    11    5    6 ar
    12    5    9 1
    13    6    7 1
    14    6    8 ar
    15    9   10 2
    16    9   11 1
    17   11   12 1
    18   12   13 2
    19   13   14 1
    20   13   23 1
    21   14   18 1
    22   14   15 2
    23   15   16 1
    24   15   24 1
    25   16   17 2
    26   16   25 1
    27   17   18 1
    28   17   26 1
@<TRIPOS>MOLECULE
ZINC00187107
   27    29     0     0     0
SMALL
USER_CHARGES

@<TRIPOS>ATOM
      1 C1         -0.0184    1.5028    0.0103 C.3       1 <0>        -0.1345
      2 C2          0.0021   -0.0041    0.0020 C.2       1 <0>         0.2021
      3 C3         -1.1683   -0.6805    0.0040 C.2       1 <0>        -0.1800
      4 C4         -1.1545   -2.0888   -0.0037 C.2       1 <0>         0.0684
      5 C5          0.0896   -2.7640   -0.0134 C.2       1 <0>        -0.2562
      6 C6          1.2751   -1.9988   -0.0139 C.2       1 <0>         0.3467
      7 S1          2.8010   -2.7750   -0.0255 S.2       1 <0>        -0.5469
      8 N1          1.1990   -0.6531   -0.0129 N.pl3     1 <0>        -0.5314
      9 C7         -0.1997   -4.1463   -0.0203 C.2       1 <0>         0.5262
     10 O1          0.6303   -5.0374   -0.0290 O.2       1 <0>        -0.3917
     11 O2         -1.5321   -4.3278   -0.0152 O.3       1 <0>        -0.2446
     12 C8         -2.1739   -3.1315   -0.0052 C.2       1 <0>         0.0417
     13 C9         -3.5238   -2.9402    0.0030 C.2       1 <0>         0.0114
     14 C10        -4.3954   -4.0529    0.0003 C.2       1 <0>        -0.0269
     15 C11        -5.7759   -4.0058    0.0022 C.2       1 <0>        -0.1441
     16 C12        -6.2205   -5.3365   -0.0018 C.2       1 <0>        -0.2244
     17 C13        -5.1227   -6.1252   -0.0059 C.2       1 <0>         0.0017
     18 O3         -4.0276   -5.3513   -0.0105 O.3       1 <0>        -0.1498
     19 H1          1.0042    1.8801    0.0026 H         1 <0>         0.0868
     20 H2         -0.5455    1.8639   -0.8728 H         1 <0>         0.1096
     21 H3         -0.5286    1.8543    0.9071 H         1 <0>         0.1096
     22 H4         -2.1064   -0.1453    0.0118 H         1 <0>         0.1728
     23 H5         -3.9272   -1.9384    0.0116 H         1 <0>         0.1883
     24 H6         -6.3921   -3.1189    0.0060 H         1 <0>         0.1605
     25 H7         -7.2481   -5.6688   -0.0011 H         1 <0>         0.1576
     26 H8         -5.1269   -7.2052   -0.0092 H         1 <0>         0.2100
     27 H9          2.0182   -0.1336   -0.0179 H         1 <0>         0.4370
@<TRIPOS>BOND
     1    1    2 1
     2    1   19 1
     3    1   20 1
     4    1   21 1
     5    2    8 1
     6    2    3 2
     7    3    4 1
     8    3   22 1
     9    4   12 1
    10    4    5 2
    11    5    6 1
    12    5    9 1
    13    6    7 2
    14    6    8 1
    15    8   27 1
    16    9   10 2
    17    9   11 1
    18   11   12 1
    19   12   13 2
    20   13   14 1
    21   13   23 1
    22   14   18 1
    23   14   15 2
    24   15   16 1
    25   15   24 1
    26   16   17 2
    27   16   25 1
    28   17   18 1
    29   17   26 1
@<TRIPOS>MOLECULE
ZINC34132143
   29    31     0     0     0
SMALL
USER_CHARGES

@<TRIPOS>ATOM
      1 C1         -0.0184    1.5028    0.0103 C.3       1 <0>        -0.0764
      2 C2          0.0021   -0.0041    0.0020 C.2       1 <0>        -0.0115
      3 C3         -1.0866   -0.8028    0.0027 C.2       1 <0>        -0.2147
      4 C4         -0.6277   -2.1305   -0.0075 C.2       1 <0>        -0.1926
      5 C5          0.7499   -2.0695   -0.0140 C.2       1 <0>         0.0264
      6 O1          1.1051   -0.7681   -0.0131 O.3       1 <0>        -0.1516
      7 C6          1.6345   -3.1763   -0.0250 C.2       1 <0>        -0.0956
      8 C7          2.9778   -2.9724   -0.0305 C.2       1 <0>         0.1244
      9 C8          4.0021   -4.0161   -0.0477 C.ar      1 <0>        -0.0256
     10 C9          4.0019   -5.4111   -0.0615 C.ar      1 <0>        -0.1969
     11 C10         5.2104   -6.0768   -0.0752 C.ar      1 <0>         0.1771
     12 N1          6.3600   -5.4245   -0.0751 N.ar      1 <0>        -0.4968
     13 C11         6.4258   -4.0996   -0.0624 C.ar      1 <0>         0.3796
     14 S1          7.9934   -3.2950   -0.0637 S.3       1 <0>        -0.7963
     15 C12         5.2485   -3.3406   -0.0484 C.ar      1 <0>        -0.2845
     16 C13         4.9346   -1.9148   -0.0316 C.2       1 <0>         0.5262
     17 O2          5.7484   -1.0098   -0.0273 O.2       1 <0>        -0.4078
     18 O3          3.5976   -1.7663   -0.0269 O.3       1 <0>        -0.2649
     19 C14         5.2198   -7.5837   -0.0902 C.3       1 <0>        -0.1009
     20 H1          1.0042    1.8801    0.0026 H         1 <0>         0.0776
     21 H2         -0.5455    1.8639   -0.8728 H         1 <0>         0.0839
     22 H3         -0.5286    1.8543    0.9071 H         1 <0>         0.0840
     23 H4         -2.1175   -0.4810    0.0101 H         1 <0>         0.1471
     24 H5         -1.2347   -3.0238   -0.0095 H         1 <0>         0.1514
     25 H6          1.2410   -4.1821   -0.0290 H         1 <0>         0.1780
     26 H7          3.0721   -5.9604   -0.0610 H         1 <0>         0.1333
     27 H8          5.2160   -7.9369   -1.1214 H         1 <0>         0.0775
     28 H9          6.1151   -7.9465    0.4148 H         1 <0>         0.0772
     29 H10         4.3352   -7.9578    0.4252 H         1 <0>         0.0725
@<TRIPOS>BOND
     1    1    2 1
     2    1   20 1
     3    1   21 1
     4    1   22 1
     5    2    6 1
     6    2    3 2
     7    3    4 1
     8    3   23 1
     9    4    5 2
    10    4   24 1
    11    5    6 1
    12    5    7 1
    13    7    8 2
    14    7   25 1
    15    8   18 1
    16    8    9 1
    17    9   15 ar
    18    9   10 ar
    19   10   11 ar
    20   10   26 1
    21   11   12 ar
    22   11   19 1
    23   12   13 ar
    24   13   14 1
    25   13   15 ar
    26   15   16 1
    27   16   17 2
    28   16   18 1
    29   19   27 1
    30   19   28 1
    31   19   29 1
@<TRIPOS>MOLECULE
ZINC34132143
   30    32     0     0     0
SMALL
USER_CHARGES

@<TRIPOS>ATOM
      1 C1         -0.0184    1.5028    0.0103 C.3       1 <0>        -0.0859
      2 C2          0.0021   -0.0041    0.0020 C.2       1 <0>         0.0311
      3 C3         -1.0880   -0.8033    0.0027 C.2       1 <0>        -0.2245
      4 C4         -0.6306   -2.1296   -0.0071 C.2       1 <0>        -0.1375
      5 C5          0.7494   -2.0692   -0.0135 C.2       1 <0>        -0.0315
      6 O1          1.1045   -0.7673   -0.0131 O.3       1 <0>        -0.1481
      7 C6          1.6316   -3.1734   -0.0234 C.2       1 <0>         0.0151
      8 C7          2.9796   -2.9689   -0.0288 C.2       1 <0>         0.0372
      9 C8          4.0091   -4.0017   -0.0449 C.2       1 <0>         0.0691
     10 C9          4.0088   -5.4100   -0.0591 C.2       1 <0>        -0.1794
     11 C10         5.1857   -6.0750   -0.0723 C.2       1 <0>         0.2009
     12 N1          6.3763   -5.4143   -0.0719 N.pl3     1 <0>        -0.5323
     13 C11         6.4394   -4.0681   -0.0586 C.2       1 <0>         0.3478
     14 S1          7.9577   -3.2771   -0.0591 S.2       1 <0>        -0.5479
     15 C12         5.2466   -3.3144   -0.0449 C.2       1 <0>        -0.2570
     16 C13         4.9440   -1.9350   -0.0294 C.2       1 <0>         0.5261
     17 O2          5.7653   -1.0360   -0.0249 O.2       1 <0>        -0.3927
     18 O3          3.6098   -1.7665   -0.0262 O.3       1 <0>        -0.2448
     19 C14         5.1798   -7.5819   -0.0875 C.3       1 <0>        -0.1353
     20 H1          1.0042    1.8801    0.0026 H         1 <0>         0.0822
     21 H2         -0.5455    1.8639   -0.8728 H         1 <0>         0.0928
     22 H3         -0.5286    1.8543    0.9071 H         1 <0>         0.0929
     23 H4         -2.1188   -0.4811    0.0096 H         1 <0>         0.1571
     24 H5         -1.2382   -3.0225   -0.0090 H         1 <0>         0.1608
     25 H6          1.2380   -4.1791   -0.0267 H         1 <0>         0.1884
     26 H7          3.0760   -5.9542   -0.0590 H         1 <0>         0.1724
     27 H8          5.1726   -7.9349   -1.1187 H         1 <0>         0.1069
     28 H9          6.0711   -7.9538    0.4177 H         1 <0>         0.0910
     29 H10         4.2912   -7.9469    0.4277 H         1 <0>         0.1080
     30 H11         7.2005   -5.9258   -0.0809 H         1 <0>         0.4370
@<TRIPOS>BOND
     1    1    2 1
     2    1   20 1
     3    1   21 1
     4    1   22 1
     5    2    6 1
     6    2    3 2
     7    3    4 1
     8    3   23 1
     9    4    5 2
    10    4   24 1
    11    5    6 1
    12    5    7 1
    13    7    8 2
    14    7   25 1
    15    8   18 1
    16    8    9 1
    17    9   15 2
    18    9   10 1
    19   10   11 2
    20   10   26 1
    21   11   12 1
    22   11   19 1
    23   12   13 1
    24   12   30 1
    25   13   14 2
    26   13   15 1
    27   15   16 1
    28   16   17 2
    29   16   18 1
    30   19   27 1
    31   19   28 1
    32   19   29 1
