@<TRIPOS>MOLECULE
ZINC20269170
   22    23     0     0     0
SMALL
USER_CHARGES
(5-fluoro-1H-indol-3-yl)methanamine
@<TRIPOS>ATOM
      1 C1          0.0021   -0.0041    0.0020 C.ar      1 <0>        -0.1273
      2 C2         -0.0166    1.3733    0.0096 C.ar      1 <0>        -0.0816
      3 C3          1.1786    2.0839    0.0020 C.ar      1 <0>         0.0748
      4 C4          2.3993    1.3850   -0.0134 C.ar      1 <0>        -0.0735
      5 C5          2.4033   -0.0113   -0.0210 C.ar      1 <0>        -0.1350
      6 C6          1.2073   -0.6963   -0.0132 C.ar      1 <0>         0.1005
      7 F1          1.2064   -2.0472   -0.0209 F         1 <0>        -0.1314
      8 C7          3.4504    2.4052   -0.0185 C.2       1 <0>        -0.2755
      9 C8          2.8382    3.5999   -0.0064 C.2       1 <0>         0.1425
     10 N1          1.4809    3.4285    0.0059 N.pl3     1 <0>        -0.5896
     11 H1          0.6722    4.1740    0.0175 H         1 <0>         0.4616
     12 C9          4.9373    2.1602   -0.0342 C.3       1 <0>         0.0924
     13 N2          5.3680    1.8502   -1.4040 N.4       1 <0>        -0.6868
     14 H2         -0.9289   -0.5515    0.0076 H         1 <0>         0.1482
     15 H3         -0.9589    1.9009    0.0169 H         1 <0>         0.1402
     16 H4          3.3384   -0.5516   -0.0332 H         1 <0>         0.1340
     17 H5          3.3425    4.5549   -0.0070 H         1 <0>         0.1819
     18 H6          5.4610    3.0604    0.3200 H         1 <0>         0.1321
     19 H7          5.1764    1.3134    0.6259 H         1 <0>         0.1306
     20 H8          6.4533    1.6714   -1.4155 H         1 <0>         0.4555
     21 H9          5.1289    2.6971   -2.0640 H         1 <0>         0.4524
     22 H10         4.8443    0.9500   -1.7582 H         1 <0>         0.4538
@<TRIPOS>BOND
     1    1    6 ar
     2    1    2 ar
     3    1   14 1
     4    2    3 ar
     5    2   15 1
     6    3   10 1
     7    3    4 ar
     8    4    5 ar
     9    4    8 1
    10    5    6 ar
    11    5   16 1
    12    6    7 1
    13    8    9 2
    14    8   12 1
    15    9   10 1
    16    9   17 1
    17   10   11 1
    18   12   13 1
    19   12   18 1
    20   12   19 1
    21   13   20 1
    22   13   21 1
    23   13   22 1
@<TRIPOS>MOLECULE
ZINC36459331
   28    29     0     0     0
SMALL
USER_CHARGES

@<TRIPOS>ATOM
      1 C1         -0.0178    1.4648    0.0101 C.3       1 <0>        -0.0471
      2 N1          0.0021   -0.0041    0.0020 N.4       1 <0>        -0.5105
      3 C2          0.6897   -0.4778   -1.2066 C.3       1 <0>        -0.0103
      4 C3          0.7104   -2.0077   -1.2150 C.3       1 <0>        -0.0610
      5 C4          1.4158   -2.4937   -2.4549 C.2       1 <0>        -0.2067
      6 C5          0.8397   -2.8444   -3.6155 C.2       1 <0>         0.0952
      7 N2          1.7966   -3.2332   -4.5127 N.pl3     1 <0>        -0.5846
      8 H1          1.6225   -3.5303   -5.4195 H         1 <0>         0.4260
      9 C6          3.0448   -3.1396   -3.9360 C.ar      1 <0>         0.0840
     10 C7          2.8606   -2.6668   -2.6240 C.ar      1 <0>        -0.0747
     11 C8          3.9649   -2.4669   -1.7932 C.ar      1 <0>        -0.1231
     12 C9          5.2315   -2.7321   -2.2677 C.ar      1 <0>         0.0893
     13 C10         5.4121   -3.1956   -3.5655 C.ar      1 <0>        -0.1275
     14 C11         4.3309   -3.4051   -4.3932 C.ar      1 <0>        -0.0877
     15 F1          6.3028   -2.5401   -1.4674 F         1 <0>        -0.1352
     16 H2          1.0047    1.8421    0.0024 H         1 <0>         0.1231
     17 H3         -0.5450    1.8259   -0.8730 H         1 <0>         0.1228
     18 H4         -0.5280    1.8163    0.9069 H         1 <0>         0.1262
     19 H5          0.4901   -0.3383    0.8195 H         1 <0>         0.4304
     20 H6          0.1625   -0.1167   -2.0897 H         1 <0>         0.1314
     21 H7          1.7123   -0.1005   -1.2143 H         1 <0>         0.1315
     22 H8          1.2376   -2.3687   -0.3319 H         1 <0>         0.0929
     23 H9         -0.3122   -2.3849   -1.2073 H         1 <0>         0.0935
     24 H10        -0.2221   -2.8231   -3.8119 H         1 <0>         0.1770
     25 H11         3.8273   -2.1061   -0.7846 H         1 <0>         0.1322
     26 H12         6.4093   -3.3993   -3.9266 H         1 <0>         0.1457
     27 H13         4.4830   -3.7645   -5.4002 H         1 <0>         0.1375
     28 H14        -0.9445   -0.3533    0.0092 H         1 <0>         0.4298
@<TRIPOS>BOND
     1    1    2 1
     2    1   16 1
     3    1   17 1
     4    1   18 1
     5    2    3 1
     6    2   19 1
     7    2   28 1
     8    3    4 1
     9    3   20 1
    10    3   21 1
    11    4    5 1
    12    4   22 1
    13    4   23 1
    14    5   10 1
    15    5    6 2
    16    6    7 1
    17    6   24 1
    18    7    8 1
    19    7    9 1
    20    9   14 ar
    21    9   10 ar
    22   10   11 ar
    23   11   12 ar
    24   11   25 1
    25   12   13 ar
    26   12   15 1
    27   13   14 ar
    28   13   26 1
    29   14   27 1
@<TRIPOS>MOLECULE
ZINC66252102
   31    32     0     0     0
SMALL
USER_CHARGES

@<TRIPOS>ATOM
      1 C1         -0.0187    1.5258    0.0104 C.3       1 <0>        -0.1905
      2 C2          0.0021   -0.0041    0.0020 C.3       1 <0>        -0.0095
      3 N1          0.6897   -0.4778   -1.2066 N.4       1 <0>        -0.5110
      4 C3          0.7096   -1.9467   -1.2147 C.3       1 <0>        -0.0086
      5 C4          1.4257   -2.4401   -2.4735 C.3       1 <0>        -0.0606
      6 C5          1.4462   -3.9469   -2.4818 C.2       1 <0>        -0.2062
      7 C6          2.4368   -4.7344   -2.0340 C.2       1 <0>         0.0950
      8 N2          2.1005   -6.0496   -2.2041 N.pl3     1 <0>        -0.5846
      9 H1          2.6575   -6.8039   -1.9559 H         1 <0>         0.4260
     10 C7          0.8522   -6.1429   -2.7807 C.ar      1 <0>         0.0840
     11 C8          0.3860   -4.8299   -2.9741 C.ar      1 <0>        -0.0746
     12 C9         -0.8702   -4.6127   -3.5437 C.ar      1 <0>        -0.1230
     13 C10        -1.6478   -5.6900   -3.9101 C.ar      1 <0>         0.0892
     14 C11        -1.1873   -6.9868   -3.7147 C.ar      1 <0>        -0.1276
     15 C12         0.0534   -7.2156   -3.1616 C.ar      1 <0>        -0.0878
     16 F1         -2.8639   -5.4846   -4.4615 F         1 <0>        -0.1353
     17 H2          1.0039    1.9031    0.0027 H         1 <0>         0.0806
     18 H3         -0.5459    1.8868   -0.8726 H         1 <0>         0.0808
     19 H4         -0.5289    1.8773    0.9072 H         1 <0>         0.1065
     20 H5          0.5293   -0.3651    0.8851 H         1 <0>         0.1301
     21 H6         -1.0205   -0.3814    0.0098 H         1 <0>         0.1304
     22 H7          0.2017   -0.1436   -2.0240 H         1 <0>         0.4280
     23 H8          1.2368   -2.3077   -0.3316 H         1 <0>         0.1312
     24 H9         -0.3130   -2.3239   -1.2069 H         1 <0>         0.1313
     25 H10         0.8985   -2.0790   -3.3565 H         1 <0>         0.0929
     26 H11         2.4483   -2.0628   -2.4812 H         1 <0>         0.0935
     27 H12         3.3625   -4.3819   -1.6036 H         1 <0>         0.1769
     28 H13        -1.2307   -3.6060   -3.6959 H         1 <0>         0.1322
     29 H14        -1.8057   -7.8233   -4.0051 H         1 <0>         0.1457
     30 H15         0.4008   -8.2274   -3.0134 H         1 <0>         0.1374
     31 H16         1.6363   -0.1286   -1.2138 H         1 <0>         0.4274
@<TRIPOS>BOND
     1    1    2 1
     2    1   17 1
     3    1   18 1
     4    1   19 1
     5    2    3 1
     6    2   20 1
     7    2   21 1
     8    3    4 1
     9    3   22 1
    10    3   31 1
    11    4    5 1
    12    4   23 1
    13    4   24 1
    14    5    6 1
    15    5   25 1
    16    5   26 1
    17    6   11 1
    18    6    7 2
    19    7    8 1
    20    7   27 1
    21    8    9 1
    22    8   10 1
    23   10   15 ar
    24   10   11 ar
    25   11   12 ar
    26   12   13 ar
    27   12   28 1
    28   13   14 ar
    29   13   16 1
    30   14   15 ar
    31   14   29 1
    32   15   30 1
@<TRIPOS>MOLECULE
ZINC02599104
   31    32     0     0     0
SMALL
USER_CHARGES
2-(5-fluoro-1H-indol-3-yl)-N,N-dimethyl-ethanamine
@<TRIPOS>ATOM
      1 C1         -0.6398    3.0356   -1.2834 C.3       1 <0>        -0.0479
      2 C2         -0.2112    0.9304   -2.4001 C.3       1 <0>        -0.0424
      3 C3         -0.0127    1.0858    0.0080 C.3       1 <0>        -0.0050
      4 C4         -0.7288    1.5792    1.2668 C.3       1 <0>        -0.0612
      5 C5          0.0000    1.0800    2.4877 C.2       1 <0>        -0.2055
      6 C6         -0.2850   -0.0277    3.1904 C.2       1 <0>         0.0946
      7 N1          0.5922   -0.1579    4.2322 N.pl3     1 <0>        -0.5847
      8 H1          0.5857   -0.8806    4.8792 H         1 <0>         0.4259
      9 C7          1.4868    0.8905    4.2250 C.ar      1 <0>         0.0844
     10 C8          1.1578    1.7082    3.1288 C.ar      1 <0>        -0.0745
     11 C9          1.8999    2.8629    2.8726 C.ar      1 <0>        -0.1227
     12 C10         2.9584    3.1887    3.6931 C.ar      1 <0>         0.0889
     13 C11         3.2851    2.3770    4.7730 C.ar      1 <0>        -0.1276
     14 C12         2.5588    1.2373    5.0399 C.ar      1 <0>        -0.0878
     15 F1          3.6822    4.3024    3.4461 F         1 <0>        -0.1354
     16 H2          0.4056    3.3360   -1.3533 H         1 <0>         0.1231
     17 H3         -1.1740    3.3692   -2.1731 H         1 <0>         0.1225
     18 H4         -1.0893    3.4872   -0.3990 H         1 <0>         0.1228
     19 H5         -0.3490   -0.1484   -2.3276 H         1 <0>         0.1208
     20 H6         -0.7544    1.3086   -3.2661 H         1 <0>         0.1222
     21 H7          0.8498    1.1545   -2.5105 H         1 <0>         0.1223
     22 H8          0.0021   -0.0041    0.0020 H         1 <0>         0.1288
     23 H9          1.0099    1.4631    0.0003 H         1 <0>         0.1309
     24 H10        -0.7436    2.6691    1.2728 H         1 <0>         0.0922
     25 H11        -1.7514    1.2020    1.2746 H         1 <0>         0.0924
     26 H12        -1.0880   -0.7143    2.9665 H         1 <0>         0.1769
     27 H13         1.6483    3.4951    2.0339 H         1 <0>         0.1315
     28 H14         4.1169    2.6422    5.4088 H         1 <0>         0.1456
     29 H15         2.8215    0.6139    5.8818 H         1 <0>         0.1374
     30 N2         -0.7509    1.5653   -1.1793 N.4       1 <0>        -0.3987
     31 H16        -1.7410    1.3118   -1.0814 H         1 <0>         0.4302
@<TRIPOS>BOND
     1    1   16 1
     2    1   17 1
     3    1   18 1
     4    1   30 1
     5    2   19 1
     6    2   20 1
     7    2   21 1
     8    2   30 1
     9    3    4 1
    10    3   22 1
    11    3   23 1
    12    3   30 1
    13    4    5 1
    14    4   24 1
    15    4   25 1
    16    5   10 1
    17    5    6 2
    18    6    7 1
    19    6   26 1
    20    7    8 1
    21    7    9 1
    22    9   14 ar
    23    9   10 ar
    24   10   11 ar
    25   11   12 ar
    26   11   27 1
    27   12   13 ar
    28   12   15 1
    29   13   14 ar
    30   13   28 1
    31   14   29 1
    32   30   31 1
@<TRIPOS>MOLECULE
ZINC02534047
   28    29     0     0     0
SMALL
USER_CHARGES
3-(5-fluoro-1H-indol-3-yl)propan-1-amine
@<TRIPOS>ATOM
      1 C1          3.2851    2.3770    4.7730 C.ar      1 <0>        -0.1288
      2 C2          2.5588    1.2373    5.0399 C.ar      1 <0>        -0.0914
      3 C3          1.4868    0.8905    4.2250 C.ar      1 <0>         0.0843
      4 C4          1.1578    1.7082    3.1288 C.ar      1 <0>        -0.0768
      5 C5          1.8999    2.8629    2.8726 C.ar      1 <0>        -0.1181
      6 C6          2.9584    3.1887    3.6931 C.ar      1 <0>         0.0826
      7 F1          3.6822    4.3024    3.4461 F         1 <0>        -0.1375
      8 C7          0.0000    1.0800    2.4877 C.2       1 <0>        -0.1949
      9 C8         -0.2850   -0.0277    3.1904 C.2       1 <0>         0.0794
     10 N1          0.5922   -0.1579    4.2322 N.pl3     1 <0>        -0.5886
     11 H1          0.5857   -0.8806    4.8792 H         1 <0>         0.4233
     12 C9         -0.7288    1.5792    1.2668 C.3       1 <0>        -0.0355
     13 C10        -0.0127    1.0858    0.0080 C.3       1 <0>        -0.1495
     14 C11        -0.7527    1.5927   -1.2315 C.3       1 <0>        -0.0066
     15 H2          4.1169    2.6422    5.4088 H         1 <0>         0.1437
     16 H3          2.8215    0.6139    5.8818 H         1 <0>         0.1354
     17 H4          1.6483    3.4951    2.0339 H         1 <0>         0.1318
     18 H5         -1.0880   -0.7143    2.9665 H         1 <0>         0.1738
     19 H6         -0.7436    2.6691    1.2728 H         1 <0>         0.0811
     20 H7         -1.7514    1.2020    1.2746 H         1 <0>         0.0813
     21 H8          0.0021   -0.0041    0.0020 H         1 <0>         0.0870
     22 H9          1.0099    1.4631    0.0003 H         1 <0>         0.0882
     23 H10        -1.7753    1.2154   -1.2238 H         1 <0>         0.1322
     24 H11        -0.7675    2.6825   -1.2255 H         1 <0>         0.1350
     25 H12        -0.5350    1.4407   -3.2731 H         1 <0>         0.4399
     26 H13         0.9035    1.4015   -2.4393 H         1 <0>         0.4374
     27 N2         -0.0676    1.0939   -2.4370 N.4       1 <0>        -0.6477
     28 H14        -0.0939    0.0675   -2.4398 H         1 <0>         0.4390
@<TRIPOS>BOND
     1    1    6 ar
     2    1    2 ar
     3    1   15 1
     4    2    3 ar
     5    2   16 1
     6    3   10 1
     7    3    4 ar
     8    4    5 ar
     9    4    8 1
    10    5    6 ar
    11    5   17 1
    12    6    7 1
    13    8    9 2
    14    8   12 1
    15    9   10 1
    16    9   18 1
    17   10   11 1
    18   12   13 1
    19   12   19 1
    20   12   20 1
    21   13   14 1
    22   13   21 1
    23   13   22 1
    24   14   23 1
    25   14   24 1
    26   14   27 1
    27   25   27 1
    28   26   27 1
    29   27   28 1
@<TRIPOS>MOLECULE
ZINC66252790
   31    32     0     0     0
SMALL
USER_CHARGES

@<TRIPOS>ATOM
      1 C1         -0.0178    1.4648    0.0101 C.3       1 <0>        -0.0475
      2 N1          0.0021   -0.0041    0.0020 N.4       1 <0>        -0.5104
      3 C2          0.6897   -0.4778   -1.2066 C.3       1 <0>        -0.0129
      4 C3          0.7104   -2.0077   -1.2150 C.3       1 <0>        -0.1469
      5 C4          1.4265   -2.5011   -2.4738 C.3       1 <0>        -0.0347
      6 C5          1.4470   -4.0079   -2.4821 C.2       1 <0>        -0.1942
      7 C6          2.4376   -4.7954   -2.0344 C.2       1 <0>         0.0793
      8 N2          2.1013   -6.1106   -2.2044 N.pl3     1 <0>        -0.5886
      9 H1          2.6584   -6.8649   -1.9562 H         1 <0>         0.4232
     10 C7          0.8530   -6.2039   -2.7810 C.ar      1 <0>         0.0843
     11 C8          0.3869   -4.8909   -2.9745 C.ar      1 <0>        -0.0766
     12 C9         -0.8694   -4.6736   -3.5440 C.ar      1 <0>        -0.1180
     13 C10        -1.6470   -5.7510   -3.9104 C.ar      1 <0>         0.0825
     14 C11        -1.1865   -7.0478   -3.7151 C.ar      1 <0>        -0.1290
     15 C12         0.0543   -7.2766   -3.1619 C.ar      1 <0>        -0.0914
     16 F1         -2.8631   -5.5456   -4.4618 F         1 <0>        -0.1376
     17 H2          1.0047    1.8421    0.0024 H         1 <0>         0.1233
     18 H3         -0.5450    1.8259   -0.8730 H         1 <0>         0.1235
     19 H4         -0.5280    1.8163    0.9069 H         1 <0>         0.1258
     20 H5          0.4901   -0.3383    0.8195 H         1 <0>         0.4300
     21 H6          0.1625   -0.1167   -2.0897 H         1 <0>         0.1320
     22 H7          1.7123   -0.1005   -1.2143 H         1 <0>         0.1321
     23 H8          1.2376   -2.3687   -0.3319 H         1 <0>         0.0871
     24 H9         -0.3122   -2.3849   -1.2073 H         1 <0>         0.0879
     25 H10         0.8994   -2.1400   -3.3569 H         1 <0>         0.0808
     26 H11         2.4491   -2.1238   -2.4816 H         1 <0>         0.0811
     27 H12         3.3633   -4.4429   -1.6039 H         1 <0>         0.1738
     28 H13        -1.2298   -3.6670   -3.6962 H         1 <0>         0.1317
     29 H14        -1.8049   -7.8843   -4.0055 H         1 <0>         0.1436
     30 H15         0.4016   -8.2884   -3.0137 H         1 <0>         0.1353
     31 H16        -0.9445   -0.3533    0.0092 H         1 <0>         0.4306
@<TRIPOS>BOND
     1    1    2 1
     2    1   17 1
     3    1   18 1
     4    1   19 1
     5    2    3 1
     6    2   20 1
     7    2   31 1
     8    3    4 1
     9    3   21 1
    10    3   22 1
    11    4    5 1
    12    4   23 1
    13    4   24 1
    14    5    6 1
    15    5   25 1
    16    5   26 1
    17    6   11 1
    18    6    7 2
    19    7    8 1
    20    7   27 1
    21    8    9 1
    22    8   10 1
    23   10   15 ar
    24   10   11 ar
    25   11   12 ar
    26   12   13 ar
    27   12   28 1
    28   13   14 ar
    29   13   16 1
    30   14   15 ar
    31   14   29 1
    32   15   30 1
@<TRIPOS>MOLECULE
ZINC66252675
   34    35     0     0     0
SMALL
USER_CHARGES

@<TRIPOS>ATOM
      1 C1         -0.0187    1.5258    0.0104 C.3       1 <0>        -0.1910
      2 C2          0.0021   -0.0041    0.0020 C.3       1 <0>        -0.0098
      3 N1          0.6897   -0.4778   -1.2066 N.4       1 <0>        -0.5109
      4 C3          0.7096   -1.9467   -1.2147 C.3       1 <0>        -0.0114
      5 C4          1.4257   -2.4401   -2.4735 C.3       1 <0>        -0.1464
      6 C5          1.4465   -3.9699   -2.4819 C.3       1 <0>        -0.0346
      7 C6          2.1518   -4.4559   -3.7218 C.2       1 <0>        -0.1939
      8 C7          1.5757   -4.8066   -4.8824 C.2       1 <0>         0.0792
      9 N2          2.5327   -5.1954   -5.7796 N.pl3     1 <0>        -0.5887
     10 H1          2.3586   -5.4926   -6.6864 H         1 <0>         0.4232
     11 C8          3.7809   -5.1019   -5.2028 C.ar      1 <0>         0.0845
     12 C9          3.5966   -4.6291   -3.8909 C.ar      1 <0>        -0.0766
     13 C10         4.7009   -4.4291   -3.0601 C.ar      1 <0>        -0.1179
     14 C11         5.9675   -4.6943   -3.5346 C.ar      1 <0>         0.0823
     15 C12         6.1481   -5.1578   -4.8324 C.ar      1 <0>        -0.1290
     16 C13         5.0670   -5.3674   -5.6601 C.ar      1 <0>        -0.0915
     17 F1          7.0389   -4.5024   -2.7342 F         1 <0>        -0.1377
     18 H2          1.0039    1.9031    0.0027 H         1 <0>         0.0807
     19 H3         -0.5459    1.8868   -0.8726 H         1 <0>         0.0804
     20 H4         -0.5289    1.8773    0.9072 H         1 <0>         0.1069
     21 H5          0.5293   -0.3651    0.8851 H         1 <0>         0.1307
     22 H6         -1.0205   -0.3814    0.0098 H         1 <0>         0.1306
     23 H7          0.2017   -0.1436   -2.0240 H         1 <0>         0.4275
     24 H8          1.2368   -2.3077   -0.3316 H         1 <0>         0.1319
     25 H9         -0.3130   -2.3239   -1.2069 H         1 <0>         0.1319
     26 H10         0.8985   -2.0790   -3.3565 H         1 <0>         0.0870
     27 H11         2.4483   -2.0628   -2.4812 H         1 <0>         0.0878
     28 H12         1.9737   -4.3310   -1.5988 H         1 <0>         0.0809
     29 H13         0.4239   -4.3472   -2.4742 H         1 <0>         0.0812
     30 H14         0.5139   -4.7854   -5.0788 H         1 <0>         0.1738
     31 H15         4.5634   -4.0684   -2.0514 H         1 <0>         0.1318
     32 H16         7.1454   -5.3616   -5.1935 H         1 <0>         0.1435
     33 H17         5.2191   -5.7268   -6.6671 H         1 <0>         0.1353
     34 H18         1.6363   -0.1286   -1.2138 H         1 <0>         0.4281
@<TRIPOS>BOND
     1    1    2 1
     2    1   18 1
     3    1   19 1
     4    1   20 1
     5    2    3 1
     6    2   21 1
     7    2   22 1
     8    3    4 1
     9    3   23 1
    10    3   34 1
    11    4    5 1
    12    4   24 1
    13    4   25 1
    14    5    6 1
    15    5   26 1
    16    5   27 1
    17    6    7 1
    18    6   28 1
    19    6   29 1
    20    7   12 1
    21    7    8 2
    22    8    9 1
    23    8   30 1
    24    9   10 1
    25    9   11 1
    26   11   16 ar
    27   11   12 ar
    28   12   13 ar
    29   13   14 ar
    30   13   31 1
    31   14   15 ar
    32   14   17 1
    33   15   16 ar
    34   15   32 1
    35   16   33 1
@<TRIPOS>MOLECULE
ZINC00086535
   29    30     0     0     0
SMALL
USER_CHARGES

@<TRIPOS>ATOM
      1 C1         -0.0159    1.3650   -0.0977 C.ar      1 <0>        -0.1367
      2 C2          0.4840    0.9327    1.1215 C.ar      1 <0>        -0.1228
      3 C3          1.6944    0.2747    1.1872 C.ar      1 <0>        -0.1392
      4 C4          2.4234    0.0398    0.0274 C.ar      1 <0>         0.1610
      5 C5          1.9199    0.4764   -1.2099 C.ar      1 <0>        -0.1351
      6 C6          0.6903    1.1425   -1.2582 C.ar      1 <0>        -0.0822
      7 C7          2.6802    0.2355   -2.4452 C.2       1 <0>         0.5173
      8 O1          2.2828    0.6944   -3.5076 O.co2     1 <0>        -0.6905
      9 O2          3.7104   -0.4240   -2.4107 O.co2     1 <0>        -0.6662
     10 N1          3.6417   -0.6217    0.0908 N.pl3     1 <0>        -0.6664
     11 C8          4.8344    0.1003   -0.0019 C.ar      1 <0>         0.2697
     12 C9          4.8071    1.4892   -0.0308 C.ar      1 <0>        -0.1547
     13 C10         5.9875    2.1996   -0.1225 C.ar      1 <0>        -0.0764
     14 C11         7.1962    1.5302   -0.1857 C.ar      1 <0>        -0.1473
     15 C12         7.2270    0.1481   -0.1572 C.ar      1 <0>        -0.1404
     16 C13         6.0503   -0.5686   -0.0598 C.ar      1 <0>        -0.1391
     17 C14         8.5464   -0.5769   -0.2263 C.3       1 <0>         0.5096
     18 F1          9.5864    0.3547   -0.3139 F         1 <0>        -0.1815
     19 F2          8.7122   -1.3541    0.9250 F         1 <0>        -0.1825
     20 F3          8.5653   -1.4043   -1.3542 F         1 <0>        -0.1765
     21 H1         -0.9669    1.8753   -0.1374 H         1 <0>         0.1161
     22 H2         -0.0781    1.1129    2.0259 H         1 <0>         0.1163
     23 H3          2.0762   -0.0582    2.1410 H         1 <0>         0.1176
     24 H4          0.2956    1.4812   -2.2048 H         1 <0>         0.1284
     25 H5          3.6653   -1.5853    0.1995 H         1 <0>         0.4037
     26 H6          3.8636    2.0125    0.0182 H         1 <0>         0.1210
     27 H7          5.9670    3.2792   -0.1453 H         1 <0>         0.1255
     28 H8          8.1181    2.0883   -0.2577 H         1 <0>         0.1265
     29 H9          6.0754   -1.6479   -0.0327 H         1 <0>         0.1247
@<TRIPOS>BOND
     1    1    6 ar
     2    1    2 ar
     3    1   21 1
     4    2    3 ar
     5    2   22 1
     6    3    4 ar
     7    3   23 1
     8    4    5 ar
     9    4   10 1
    10    5    6 ar
    11    5    7 1
    12    6   24 1
    13    7    8 2
    14    7    9 1
    15   10   11 1
    16   10   25 1
    17   11   16 ar
    18   11   12 ar
    19   12   13 ar
    20   12   26 1
    21   13   14 ar
    22   13   27 1
    23   14   15 ar
    24   14   28 1
    25   15   16 ar
    26   15   17 1
    27   16   29 1
    28   17   18 1
    29   17   19 1
    30   17   20 1
@<TRIPOS>MOLECULE
ZINC29133764
   31    32     0     0     0
SMALL
USER_CHARGES
4-nitro-2-[3-(trifluoromethyl)anilino]benzoic acid
@<TRIPOS>ATOM
      1 C1         -1.2070    5.8724   -3.4646 C.ar      1 <0>        -0.0734
      2 C2         -2.4034    5.1785   -3.4759 C.ar      1 <0>        -0.1395
      3 C3         -2.8298    4.5108   -2.3427 C.ar      1 <0>        -0.1398
      4 C4         -2.0562    4.5252   -1.1986 C.ar      1 <0>        -0.1406
      5 C5         -0.8541    5.2211   -1.1837 C.ar      1 <0>         0.2613
      6 C6         -0.4314    5.8957   -2.3225 C.ar      1 <0>        -0.1519
      7 N1         -0.0715    5.2422   -0.0263 N.pl3     1 <0>        -0.6808
      8 C7          1.1701    5.8644   -0.0389 C.ar      1 <0>         0.1720
      9 C8          2.3314    5.1050   -0.1160 C.ar      1 <0>        -0.0731
     10 C9          3.5632    5.7257   -0.1337 C.ar      1 <0>        -0.0454
     11 C10         3.6546    7.1072   -0.0641 C.ar      1 <0>        -0.0695
     12 C11         2.5154    7.8770    0.0186 C.ar      1 <0>        -0.0746
     13 C12         1.2591    7.2640    0.0322 C.ar      1 <0>        -0.0632
     14 C13         0.0367    8.0810    0.1200 C.2       1 <0>         0.4832
     15 O1         -1.0456    7.5432    0.2477 O.co2     1 <0>        -0.5939
     16 O2          0.1184    9.4248    0.0586 O.co2     1 <0>        -0.7398
     17 N2          4.7958    4.9109   -0.2217 N.pl3     1 <0>         0.0358
     18 O3          5.8857    5.4546   -0.2329 O.2       1 <0>        -0.1687
     19 O4          4.7202    3.6968   -0.2830 O.3       1 <0>        -0.1720
     20 C14        -4.1373    3.7617   -2.3578 C.3       1 <0>         0.5100
     21 F1         -4.7322    3.8871   -3.6178 F         1 <0>        -0.1800
     22 F2         -3.9033    2.4096   -2.0851 F         1 <0>        -0.1808
     23 F3         -4.9903    4.2928   -1.3844 F         1 <0>        -0.1767
     24 H1         -0.8792    6.3969   -4.3500 H         1 <0>         0.1287
     25 H2         -3.0081    5.1619   -4.3706 H         1 <0>         0.1299
     26 H3         -2.3875    3.9994   -0.3153 H         1 <0>         0.1286
     27 H4          0.5025    6.4380   -2.3141 H         1 <0>         0.1187
     28 H5         -0.4388    4.7660    0.8948 H         1 <0>         0.4333
     29 H6          2.2693    4.0279   -0.1661 H         1 <0>         0.1517
     30 H7          4.6243    7.5826   -0.0745 H         1 <0>         0.1513
     31 H8          2.5927    8.9528    0.0732 H         1 <0>         0.1591
@<TRIPOS>BOND
     1    1    6 ar
     2    1    2 ar
     3    1   24 1
     4    2    3 ar
     5    2   25 1
     6    3    4 ar
     7    3   20 1
     8    4    5 ar
     9    4   26 1
    10    5    6 ar
    11    5    7 1
    12    6   27 1
    13    7    8 1
    14    7   28 1
    15    8   13 ar
    16    8    9 ar
    17    9   10 ar
    18    9   29 1
    19   10   11 ar
    20   10   17 1
    21   11   12 ar
    22   11   30 1
    23   12   13 ar
    24   12   31 1
    25   13   14 1
    26   14   15 2
    27   14   16 1
    28   17   18 2
    29   17   19 1
    30   20   21 1
    31   20   22 1
    32   20   23 1
@<TRIPOS>MOLECULE
ZINC29133824
   29    30     0     0     0
SMALL
USER_CHARGES
5-fluoro-2-[3-(trifluoromethyl)anilino]benzoic acid
@<TRIPOS>ATOM
      1 C1          1.2542    1.7604    0.1708 C.ar      1 <0>        -0.0745
      2 C2          0.0761    1.0358    0.1673 C.ar      1 <0>        -0.1454
      3 C3         -1.1412    1.6895    0.1179 C.ar      1 <0>        -0.1402
      4 C4         -1.1849    3.0696    0.0833 C.ar      1 <0>        -0.1472
      5 C5         -0.0037    3.8005    0.0867 C.ar      1 <0>         0.2670
      6 C6          1.2181    3.1401    0.1307 C.ar      1 <0>        -0.1511
      7 N1         -0.0440    5.1965    0.0456 N.pl3     1 <0>        -0.6801
      8 C7          1.1342    5.9288    0.1349 C.ar      1 <0>         0.1581
      9 C8          1.4835    6.5459    1.3297 C.ar      1 <0>        -0.1096
     10 C9          2.6530    7.2724    1.4170 C.ar      1 <0>        -0.1503
     11 C10         3.4891    7.3932    0.3156 C.ar      1 <0>         0.0789
     12 C11         3.1588    6.7876   -0.8787 C.ar      1 <0>        -0.1072
     13 C12         1.9795    6.0434   -0.9800 C.ar      1 <0>        -0.0906
     14 C13         1.6232    5.3887   -2.2504 C.2       1 <0>         0.4879
     15 O1          0.5441    4.8432   -2.3712 O.co2     1 <0>        -0.6041
     16 O2          2.4941    5.3947   -3.2790 O.co2     1 <0>        -0.7516
     17 F1          4.6314    8.1078    0.4138 F         1 <0>        -0.1458
     18 C14        -2.4220    0.8955    0.1075 C.3       1 <0>         0.5098
     19 F2         -2.1242   -0.4707    0.1534 F         1 <0>        -0.1810
     20 F3         -3.1946    1.2420    1.2211 F         1 <0>        -0.1820
     21 F4         -3.1363    1.1780   -1.0618 F         1 <0>        -0.1774
     22 H1          2.2035    1.2465    0.2047 H         1 <0>         0.1267
     23 H2          0.1073   -0.0433    0.1988 H         1 <0>         0.1274
     24 H3         -2.1362    3.5797    0.0496 H         1 <0>         0.1258
     25 H4          2.1383    3.7054    0.1331 H         1 <0>         0.1210
     26 H5         -1.0081    5.7161   -0.0574 H         1 <0>         0.4273
     27 H6          0.8387    6.4565    2.1915 H         1 <0>         0.1310
     28 H7          2.9199    7.7498    2.3483 H         1 <0>         0.1317
     29 H8          3.8124    6.8843   -1.7331 H         1 <0>         0.1455
@<TRIPOS>BOND
     1    1    6 ar
     2    1    2 ar
     3    1   22 1
     4    2    3 ar
     5    2   23 1
     6    3    4 ar
     7    3   18 1
     8    4    5 ar
     9    4   24 1
    10    5    6 ar
    11    5    7 1
    12    6   25 1
    13    7    8 1
    14    7   26 1
    15    8   13 ar
    16    8    9 ar
    17    9   10 ar
    18    9   27 1
    19   10   11 ar
    20   10   28 1
    21   11   12 ar
    22   11   17 1
    23   12   13 ar
    24   12   29 1
    25   13   14 1
    26   14   15 2
    27   14   16 1
    28   18   19 1
    29   18   20 1
    30   18   21 1
@<TRIPOS>MOLECULE
ZINC00077278
   25    26     0     0     0
SMALL
USER_CHARGES

@<TRIPOS>ATOM
      1 C1         -0.0168    1.3857    0.0097 C.ar      1 <0>        -0.1274
      2 C2          1.1587    2.1040    0.0023 C.ar      1 <0>        -0.0875
      3 C3          2.3792    1.4379   -0.0129 C.ar      1 <0>         0.0838
      4 C4          2.4001    0.0314   -0.0206 C.ar      1 <0>        -0.0748
      5 C5          1.2010   -0.6839   -0.0134 C.ar      1 <0>        -0.1235
      6 C6          0.0021   -0.0041    0.0020 C.ar      1 <0>         0.0897
      7 F1         -1.1606   -0.6920    0.0098 F         1 <0>        -0.1350
      8 C7          3.8137   -0.3527   -0.0361 C.2       1 <0>        -0.2088
      9 C8          4.5294    0.7830   -0.0369 C.2       1 <0>         0.0960
     10 N1          3.6901    1.8633   -0.0231 N.pl3     1 <0>        -0.5844
     11 H1          3.9752    2.7905   -0.0214 H         1 <0>         0.4262
     12 C9          4.3607   -1.7569   -0.0489 C.3       1 <0>        -0.0622
     13 C10         4.4150   -2.2700   -1.4892 C.3       1 <0>        -0.0087
     14 N2          4.9483   -3.6388   -1.5016 N.4       1 <0>        -0.6389
     15 H2         -0.9622    1.9076    0.0260 H         1 <0>         0.1459
     16 H3          1.1323    3.1836    0.0080 H         1 <0>         0.1376
     17 H4          1.2128   -1.7638   -0.0195 H         1 <0>         0.1323
     18 H5          5.6080    0.8360   -0.0463 H         1 <0>         0.1771
     19 H6          5.3646   -1.7596    0.3759 H         1 <0>         0.0938
     20 H7          3.7139   -2.4042    0.5433 H         1 <0>         0.0932
     21 H8          3.4112   -2.2673   -1.9140 H         1 <0>         0.1335
     22 H9          5.0619   -1.6227   -2.0814 H         1 <0>         0.1336
     23 H10         5.8775   -3.6413   -1.1084 H         1 <0>         0.4347
     24 H11         4.3495   -4.2380   -0.9534 H         1 <0>         0.4354
     25 H12         4.9841   -3.9772   -2.4515 H         1 <0>         0.4383
@<TRIPOS>BOND
     1    1    6 ar
     2    1    2 ar
     3    1   15 1
     4    2    3 ar
     5    2   16 1
     6    3   10 1
     7    3    4 ar
     8    4    5 ar
     9    4    8 1
    10    5    6 ar
    11    5   17 1
    12    6    7 1
    13    8    9 2
    14    8   12 1
    15    9   10 1
    16    9   18 1
    17   10   11 1
    18   12   13 1
    19   12   19 1
    20   12   20 1
    21   13   14 1
    22   13   21 1
    23   13   22 1
    24   14   23 1
    25   14   24 1
    26   14   25 1
@<TRIPOS>MOLECULE
ZINC29133769
   29    30     0     0     0
SMALL
USER_CHARGES
5-chloro-2-[3-(trifluoromethyl)anilino]benzoic acid
@<TRIPOS>ATOM
      1 C1          1.2564    1.7601    0.1660 C.ar      1 <0>        -0.0745
      2 C2          0.0786    1.0349    0.1631 C.ar      1 <0>        -0.1449
      3 C3         -1.1391    1.6881    0.1157 C.ar      1 <0>        -0.1404
      4 C4         -1.1834    3.0683    0.0827 C.ar      1 <0>        -0.1469
      5 C5         -0.0025    3.7997    0.0850 C.ar      1 <0>         0.2669
      6 C6          1.2195    3.1398    0.1269 C.ar      1 <0>        -0.1505
      7 N1         -0.0435    5.1957    0.0449 N.pl3     1 <0>        -0.6815
      8 C7          1.1339    5.9281    0.1336 C.ar      1 <0>         0.1734
      9 C8          1.4837    6.5459    1.3282 C.ar      1 <0>        -0.1263
     10 C9          2.6533    7.2722    1.4144 C.ar      1 <0>        -0.1078
     11 C10         3.4887    7.3920    0.3134 C.ar      1 <0>        -0.0480
     12 C11         3.1587    6.7864   -0.8800 C.ar      1 <0>        -0.0634
     13 C12         1.9791    6.0429   -0.9816 C.ar      1 <0>        -0.1066
     14 C13         1.6228    5.3883   -2.2521 C.2       1 <0>         0.4886
     15 O1          0.5435    4.8430   -2.3729 O.co2     1 <0>        -0.6055
     16 O2          2.4937    5.3941   -3.2805 O.co2     1 <0>        -0.7517
     17 Cl1         4.9569    8.3097    0.4391 Cl        1 <0>        -0.0840
     18 C14        -2.4196    0.8936    0.1059 C.3       1 <0>         0.5098
     19 F1         -2.1211   -0.4725    0.1501 F         1 <0>        -0.1809
     20 F2         -3.1911    1.2386    1.2208 F         1 <0>        -0.1820
     21 F3         -3.1353    1.1770   -1.0623 F         1 <0>        -0.1773
     22 H1          2.2059    1.2466    0.1986 H         1 <0>         0.1269
     23 H2          0.1103   -0.0442    0.1933 H         1 <0>         0.1275
     24 H3         -2.1350    3.5780    0.0501 H         1 <0>         0.1259
     25 H4          2.1396    3.7054    0.1285 H         1 <0>         0.1210
     26 H5         -1.0079    5.7149   -0.0569 H         1 <0>         0.4278
     27 H6          0.8393    6.4569    2.1903 H         1 <0>         0.1304
     28 H7          2.9205    7.7503    2.3452 H         1 <0>         0.1299
     29 H8          3.8127    6.8824   -1.7341 H         1 <0>         0.1439
@<TRIPOS>BOND
     1    1    6 ar
     2    1    2 ar
     3    1   22 1
     4    2    3 ar
     5    2   23 1
     6    3    4 ar
     7    3   18 1
     8    4    5 ar
     9    4   24 1
    10    5    6 ar
    11    5    7 1
    12    6   25 1
    13    7    8 1
    14    7   26 1
    15    8   13 ar
    16    8    9 ar
    17    9   10 ar
    18    9   27 1
    19   10   11 ar
    20   10   28 1
    21   11   12 ar
    22   11   17 1
    23   12   13 ar
    24   12   29 1
    25   13   14 1
    26   14   15 2
    27   14   16 1
    28   18   19 1
    29   18   20 1
    30   18   21 1
