@<TRIPOS>MOLECULE
ZINC01536875
   65    67     0     0     0
SMALL
USER_CHARGES

@<TRIPOS>ATOM
      1 C1          4.0767    1.5501   -2.2253 C.3       1 <0>        -0.1429
      2 C2          3.1892    0.3066   -2.1417 C.3       1 <0>        -0.0503
      3 C3          3.6889   -0.7444   -3.1349 C.3       1 <0>        -0.1420
      4 C4          3.2437   -0.2563   -0.7448 C.ar      1 <0>        -0.1038
      5 C5          4.4596   -0.6659   -0.2142 C.ar      1 <0>        -0.1005
      6 C6          4.5312   -1.1831    1.0603 C.ar      1 <0>        -0.1276
      7 C7          3.3746   -1.2973    1.8259 C.ar      1 <0>         0.0922
      8 C8          2.1455   -0.8808    1.2834 C.ar      1 <0>        -0.0637
      9 C9          2.0970   -0.3544   -0.0085 C.ar      1 <0>        -0.0667
     10 C10         1.1366   -1.1274    2.3206 C.2       1 <0>        -0.2087
     11 C11         1.7820   -1.6532    3.3790 C.2       1 <0>         0.1830
     12 N1          3.1248   -1.7613    3.0977 N.pl3     1 <0>        -0.4758
     13 C12         4.1370   -2.2913    4.0145 C.3       1 <0>         0.1480
     14 C13         4.7666   -1.1553    4.7788 C.ar      1 <0>        -0.1002
     15 C14         5.0820    0.0235    4.1292 C.ar      1 <0>        -0.0905
     16 C15         5.6594    1.0657    4.8297 C.ar      1 <0>        -0.1102
     17 C16         5.9219    0.9290    6.1812 C.ar      1 <0>        -0.0263
     18 C17         5.6061   -0.2510    6.8307 C.ar      1 <0>        -0.1053
     19 C18         5.0235   -1.2905    6.1304 C.ar      1 <0>        -0.0845
     20 Cl1         6.6477    2.2374    7.0615 Cl        1 <0>        -0.0750
     21 C19         1.1320   -2.0616    4.6758 C.3       1 <0>        -0.0423
     22 C20         0.8145   -0.8138    5.5023 C.3       1 <0>        -0.1182
     23 C21         2.1056   -0.0384    5.7717 C.3       1 <0>        -0.1138
     24 C22        -0.1624    0.0748    4.7297 C.3       1 <0>        -0.1169
     25 C23         0.1923   -1.2238    6.8122 C.2       1 <0>         0.5070
     26 O1          0.3520   -0.5346    7.8052 O.co2     1 <0>        -0.6941
     27 O2         -0.4709   -2.2447    6.8790 O.co2     1 <0>        -0.6977
     28 S1         -0.5903   -0.7977    2.2032 S.3       1 <0>        -0.0723
     29 C24        -1.2856   -2.3329    1.5323 C.3       1 <0>        -0.0756
     30 C25        -0.9832   -3.4897    2.4869 C.3       1 <0>        -0.1393
     31 C26        -2.8003   -2.1819    1.3776 C.3       1 <0>        -0.1241
     32 C27        -0.6598   -2.6220    0.1663 C.3       1 <0>        -0.1341
     33 H1          5.1044    1.2801   -1.9822 H         1 <0>         0.0545
     34 H2          4.0374    1.9573   -3.2357 H         1 <0>         0.0531
     35 H3          3.7207    2.2989   -1.5177 H         1 <0>         0.0556
     36 H4          2.1616    0.5767   -2.3848 H         1 <0>         0.0741
     37 H5          4.7166   -1.0144   -2.8918 H         1 <0>         0.0544
     38 H6          3.0567   -1.6302   -3.0753 H         1 <0>         0.0543
     39 H7          3.6496   -0.3372   -4.1452 H         1 <0>         0.0531
     40 H8          5.3582   -0.5784   -0.8069 H         1 <0>         0.1188
     41 H9          5.4817   -1.4993    1.4640 H         1 <0>         0.1154
     42 H10         1.1555   -0.0296   -0.4262 H         1 <0>         0.1205
     43 H11         3.6674   -2.9833    4.7135 H         1 <0>         0.1043
     44 H12         4.9045   -2.8153    3.4448 H         1 <0>         0.0993
     45 H13         4.8774    0.1300    3.0741 H         1 <0>         0.1330
     46 H14         5.9061    1.9865    4.3220 H         1 <0>         0.1306
     47 H15         5.8110   -0.3584    7.8856 H         1 <0>         0.1349
     48 H16         4.7725   -2.2099    6.6384 H         1 <0>         0.1342
     49 H17         0.2093   -2.6024    4.4653 H         1 <0>         0.1047
     50 H18         1.8107   -2.7052    5.2356 H         1 <0>         0.0598
     51 H19         2.6357    0.1221    4.8328 H         1 <0>         0.0360
     52 H20         1.8640    0.9246    6.2216 H         1 <0>         0.0474
     53 H21         2.7371   -0.6093    6.4524 H         1 <0>         0.0446
     54 H22        -1.0822   -0.4777    4.5378 H         1 <0>         0.0683
     55 H23        -0.3886    0.9637    5.3185 H         1 <0>         0.0403
     56 H24         0.2877    0.3713    3.7823 H         1 <0>         0.0502
     57 H25        -1.4291   -3.2837    3.4600 H         1 <0>         0.0739
     58 H26        -1.4010   -4.4122    2.0837 H         1 <0>         0.0521
     59 H27         0.0958   -3.5972    2.5971 H         1 <0>         0.0538
     60 H28        -3.0157   -1.3578    0.6975 H         1 <0>         0.0584
     61 H29        -3.2181   -3.1044    0.9745 H         1 <0>         0.0622
     62 H30        -3.2461   -1.9760    2.3507 H         1 <0>         0.0651
     63 H31         0.4192   -2.7296    0.2765 H         1 <0>         0.0569
     64 H32        -1.0776   -3.5445   -0.2368 H         1 <0>         0.0503
     65 H33        -0.8753   -1.7979   -0.5138 H         1 <0>         0.0583
@<TRIPOS>BOND
     1    1    2 1
     2    1   33 1
     3    1   34 1
     4    1   35 1
     5    2    3 1
     6    2    4 1
     7    2   36 1
     8    3   37 1
     9    3   38 1
    10    3   39 1
    11    4    9 ar
    12    4    5 ar
    13    5    6 ar
    14    5   40 1
    15    6    7 ar
    16    6   41 1
    17    7   12 1
    18    7    8 ar
    19    8    9 ar
    20    8   10 1
    21    9   42 1
    22   10   11 2
    23   10   28 1
    24   11   12 1
    25   11   21 1
    26   12   13 1
    27   13   14 1
    28   13   43 1
    29   13   44 1
    30   14   19 ar
    31   14   15 ar
    32   15   16 ar
    33   15   45 1
    34   16   17 ar
    35   16   46 1
    36   17   18 ar
    37   17   20 1
    38   18   19 ar
    39   18   47 1
    40   19   48 1
    41   21   22 1
    42   21   49 1
    43   21   50 1
    44   22   23 1
    45   22   24 1
    46   22   25 1
    47   23   51 1
    48   23   52 1
    49   23   53 1
    50   24   54 1
    51   24   55 1
    52   24   56 1
    53   25   26 2
    54   25   27 1
    55   28   29 1
    56   29   30 1
    57   29   31 1
    58   29   32 1
    59   30   57 1
    60   30   58 1
    61   30   59 1
    62   31   60 1
    63   31   61 1
    64   31   62 1
    65   32   63 1
    66   32   64 1
    67   32   65 1
@<TRIPOS>MOLECULE
ZINC02526554
   46    48     0     0     0
SMALL
USER_CHARGES

@<TRIPOS>ATOM
      1 C1         -0.7563    1.5232    0.3043 C.3       1 <0>        -0.0854
      2 C2         -0.4395    0.0531    0.2066 C.2       1 <0>        -0.1812
      3 C3         -0.4164   -0.7538   -1.0157 C.ar      1 <0>        -0.0695
      4 C4         -0.6526   -0.4780   -2.3644 C.ar      1 <0>        -0.1065
      5 C5         -0.5467   -1.4885   -3.2951 C.ar      1 <0>         0.0614
      6 C6         -0.2068   -2.7766   -2.8974 C.ar      1 <0>        -0.1408
      7 C7          0.0284   -3.0627   -1.5710 C.ar      1 <0>        -0.0988
      8 C8         -0.0727   -2.0573   -0.6151 C.ar      1 <0>         0.0904
      9 N1          0.0977   -2.0301    0.7522 N.pl3     1 <0>        -0.4680
     10 C9         -0.1193   -0.7639    1.2226 C.2       1 <0>         0.1249
     11 C10        -0.0179   -0.3486    2.6677 C.3       1 <0>        -0.0352
     12 C11        -1.3769   -0.5296    3.3469 C.3       1 <0>        -0.1278
     13 C12        -2.4441    0.2392    2.5652 C.3       1 <0>        -0.1204
     14 C13        -1.7383   -2.0160    3.3766 C.3       1 <0>        -0.1273
     15 C14        -1.3084   -0.0009    4.7564 C.2       1 <0>         0.5044
     16 O1         -2.3060    0.4613    5.2833 O.co2     1 <0>        -0.6916
     17 O2         -0.2554   -0.0355    5.3700 O.co2     1 <0>        -0.6977
     18 C15         0.4628   -3.1838    1.5780 C.3       1 <0>         0.1341
     19 C16         1.9607   -3.3487    1.5765 C.ar      1 <0>        -0.1053
     20 C17         2.5780   -4.0466    0.5552 C.ar      1 <0>        -0.0891
     21 C18         3.9518   -4.1982    0.5533 C.ar      1 <0>        -0.1141
     22 C19         4.7092   -3.6513    1.5738 C.ar      1 <0>        -0.0282
     23 C20         4.0909   -2.9530    2.5956 C.ar      1 <0>        -0.1084
     24 C21         2.7176   -2.7972    2.5934 C.ar      1 <0>        -0.0825
     25 Cl1         6.4347   -3.8418    1.5723 Cl        1 <0>        -0.0737
     26 F1         -0.7748   -1.2264   -4.6007 F         1 <0>        -0.1483
     27 H1          0.1614    2.1008    0.1940 H         1 <0>         0.0573
     28 H2         -1.4555    1.7975   -0.4857 H         1 <0>         0.0582
     29 H3         -1.2042    1.7346    1.2753 H         1 <0>         0.0776
     30 H4         -0.9172    0.5217   -2.6760 H         1 <0>         0.1306
     31 H5         -0.1267   -3.5606   -3.6358 H         1 <0>         0.1320
     32 H6          0.2911   -4.0670   -1.2732 H         1 <0>         0.1231
     33 H7          0.7254   -0.9662    3.1719 H         1 <0>         0.0749
     34 H8          0.2803    0.6983    2.7248 H         1 <0>         0.0843
     35 H9         -2.4322   -0.0806    1.5232 H         1 <0>         0.0457
     36 H10        -3.4251    0.0382    2.9957 H         1 <0>         0.0519
     37 H11        -2.2354    1.3076    2.6198 H         1 <0>         0.0493
     38 H12        -0.9780   -2.5636    3.9335 H         1 <0>         0.0487
     39 H13        -2.7064   -2.1449    3.8605 H         1 <0>         0.0544
     40 H14        -1.7878   -2.3983    2.3571 H         1 <0>         0.0426
     41 H15         0.1158   -3.0242    2.5989 H         1 <0>         0.1181
     42 H16        -0.0021   -4.0825    1.1726 H         1 <0>         0.0944
     43 H17         1.9866   -4.4737   -0.2411 H         1 <0>         0.1295
     44 H18         4.4339   -4.7437   -0.2444 H         1 <0>         0.1329
     45 H19         4.6816   -2.5261    3.3926 H         1 <0>         0.1369
     46 H20         2.2352   -2.2480    3.3885 H         1 <0>         0.1422
@<TRIPOS>BOND
     1    1    2 1
     2    1   27 1
     3    1   28 1
     4    1   29 1
     5    2   10 2
     6    2    3 1
     7    3    8 ar
     8    3    4 ar
     9    4    5 ar
    10    4   30 1
    11    5    6 ar
    12    5   26 1
    13    6    7 ar
    14    6   31 1
    15    7    8 ar
    16    7   32 1
    17    8    9 1
    18    9   10 1
    19    9   18 1
    20   10   11 1
    21   11   12 1
    22   11   33 1
    23   11   34 1
    24   12   13 1
    25   12   14 1
    26   12   15 1
    27   13   35 1
    28   13   36 1
    29   13   37 1
    30   14   38 1
    31   14   39 1
    32   14   40 1
    33   15   16 2
    34   15   17 1
    35   18   19 1
    36   18   41 1
    37   18   42 1
    38   19   24 ar
    39   19   20 ar
    40   20   21 ar
    41   20   43 1
    42   21   22 ar
    43   21   44 1
    44   22   23 ar
    45   22   25 1
    46   23   24 ar
    47   23   45 1
    48   24   46 1
