@<TRIPOS>MOLECULE
ZINC02570895
   40    42     0     0     0
SMALL
USER_CHARGES

@<TRIPOS>ATOM
      1 C1          0.0405    1.5033    0.0105 C.3       1 <0>        -0.1224
      2 C2          0.0481   -0.0036    0.0022 C.ar      1 <0>        -0.0617
      3 C3         -0.4654   -0.6891   -1.0843 C.ar      1 <0>        -0.1180
      4 C4         -0.4609   -2.0687   -1.0981 C.ar      1 <0>        -0.0762
      5 C5          0.0630   -2.7726   -0.0133 C.ar      1 <0>        -0.0606
      6 C6          0.5793   -2.0754    1.0794 C.ar      1 <0>        -0.0985
      7 C7          0.5738   -0.6957    1.0787 C.ar      1 <0>        -0.1165
      8 C8          0.0704   -4.2518   -0.0214 C.2       1 <0>         0.1497
      9 C9          0.0778   -5.0559   -1.1264 C.2       1 <0>        -0.2047
     10 C10         0.0841   -6.3814   -0.6911 C.2       1 <0>        -0.0034
     11 N1          0.0806   -6.3920    0.6183 N.2       1 <0>        -0.2184
     12 N2          0.0772   -5.0674    1.0740 N.pl3     1 <0>        -0.3181
     13 C11         0.0780   -4.6538    2.4124 C.ar      1 <0>         0.1993
     14 C12        -0.7877   -3.6523    2.8316 C.ar      1 <0>        -0.1310
     15 C13        -0.7845   -3.2467    4.1518 C.ar      1 <0>        -0.0008
     16 C14         0.0799   -3.8365    5.0557 C.ar      1 <0>        -0.6729
     17 C15         0.9432   -4.8341    4.6414 C.ar      1 <0>         0.0013
     18 C16         0.9405   -5.2485    3.3238 C.ar      1 <0>        -0.1237
     19 S1          0.0817   -3.3155    6.7389 S.o2      1 <0>         2.7035
     20 O1          1.3615   -3.6412    7.2635 O.2       1 <0>        -0.9570
     21 O2         -0.4336   -1.9913    6.7547 O.2       1 <0>        -0.9571
     22 N3         -1.0144   -4.2595    7.5449 N.pl3     1 <0>        -1.2487
     23 C17         0.0927   -7.5984   -1.5799 C.3       1 <0>         0.5581
     24 F1          1.4144   -7.9678   -1.8518 F         1 <0>        -0.1637
     25 F2         -0.5625   -8.6523   -0.9339 F         1 <0>        -0.1639
     26 F3         -0.5656   -7.3049   -2.7789 F         1 <0>        -0.1610
     27 H1          0.9639    1.8738   -0.4347 H         1 <0>         0.0767
     28 H2         -0.8113    1.8655   -0.5652 H         1 <0>         0.0714
     29 H3         -0.0366    1.8607    1.0374 H         1 <0>         0.0715
     30 H4         -0.8709   -0.1431   -1.9232 H         1 <0>         0.1331
     31 H5         -0.8624   -2.6027   -1.9467 H         1 <0>         0.1336
     32 H6          0.9862   -2.6145    1.9221 H         1 <0>         0.1246
     33 H7          0.9772   -0.1548    1.9220 H         1 <0>         0.1315
     34 H8          0.0784   -4.7241   -2.1542 H         1 <0>         0.1732
     35 H9         -1.4626   -3.1908    2.1259 H         1 <0>         0.1459
     36 H10        -1.4576   -2.4679    4.4785 H         1 <0>         0.1580
     37 H11         1.6174   -5.2926    5.3496 H         1 <0>         0.1579
     38 H12         1.6117   -6.0309    3.0018 H         1 <0>         0.1479
     39 H13        -1.5085   -4.9443    7.0675 H         1 <0>         0.4179
     40 H14        -1.1624   -4.1277    8.4945 H         1 <0>         0.4235
@<TRIPOS>BOND
     1    1    2 1
     2    1   27 1
     3    1   28 1
     4    1   29 1
     5    2    7 ar
     6    2    3 ar
     7    3    4 ar
     8    3   30 1
     9    4    5 ar
    10    4   31 1
    11    5    6 ar
    12    5    8 1
    13    6    7 ar
    14    6   32 1
    15    7   33 1
    16    8   12 1
    17    8    9 2
    18    9   10 1
    19    9   34 1
    20   10   11 2
    21   10   23 1
    22   11   12 1
    23   12   13 1
    24   13   18 ar
    25   13   14 ar
    26   14   15 ar
    27   14   35 1
    28   15   16 ar
    29   15   36 1
    30   16   17 ar
    31   16   19 1
    32   17   18 ar
    33   17   37 1
    34   18   38 1
    35   19   20 2
    36   19   21 2
    37   19   22 1
    38   22   39 1
    39   22   40 1
    40   23   24 1
    41   23   25 1
    42   23   26 1
@<TRIPOS>MOLECULE
ZINC01594725
   22    23     0     0     0
SMALL
USER_CHARGES

@<TRIPOS>ATOM
      1 C1         -0.0184    1.5028    0.0103 C.3       1 <0>        -0.1103
      2 C2          0.0021   -0.0041    0.0020 C.ar      1 <0>        -0.1098
      3 C3          0.0055   -0.6839   -1.2131 C.ar      1 <0>        -0.1014
      4 C4          0.0239   -2.0445   -1.2567 C.ar      1 <0>        -0.1105
      5 C5          0.0396   -2.7810   -0.0596 C.ar      1 <0>        -0.0449
      6 C6          0.0593   -4.1863   -0.0678 C.ar      1 <0>        -0.1078
      7 C7          0.0745   -4.8663    1.1110 C.ar      1 <0>        -0.1134
      8 C8          0.0710   -4.1899    2.3294 C.ar      1 <0>        -0.1175
      9 C9          0.0522   -2.8294    2.3753 C.ar      1 <0>        -0.0999
     10 C10         0.0361   -2.0939    1.1793 C.ar      1 <0>        -0.0718
     11 C11         0.0226   -0.6840    1.1870 C.ar      1 <0>         0.1120
     12 O1          0.0244   -0.0066    2.3640 O.3       1 <0>        -0.4890
     13 H1          1.0042    1.8801    0.0026 H         1 <0>         0.0732
     14 H2         -0.5455    1.8639   -0.8728 H         1 <0>         0.0668
     15 H3         -0.5286    1.8543    0.9071 H         1 <0>         0.0679
     16 H4         -0.0069   -0.1228   -2.1358 H         1 <0>         0.1282
     17 H5          0.0259   -2.5561   -2.2078 H         1 <0>         0.1307
     18 H6          0.0619   -4.7237   -1.0046 H         1 <0>         0.1294
     19 H7          0.0892   -5.9462    1.1021 H         1 <0>         0.1249
     20 H8          0.0830   -4.7532    3.2508 H         1 <0>         0.1247
     21 H9          0.0496   -2.3184    3.3267 H         1 <0>         0.1301
     22 H10        -0.8583    0.1775    2.7132 H         1 <0>         0.3884
@<TRIPOS>BOND
     1    1    2 1
     2    1   13 1
     3    1   14 1
     4    1   15 1
     5    2   11 ar
     6    2    3 ar
     7    3    4 ar
     8    3   16 1
     9    4    5 ar
    10    4   17 1
    11    5   10 ar
    12    5    6 ar
    13    6    7 ar
    14    6   18 1
    15    7    8 ar
    16    7   19 1
    17    8    9 ar
    18    8   20 1
    19    9   10 ar
    20    9   21 1
    21   10   11 ar
    22   11   12 1
    23   12   22 1
@<TRIPOS>MOLECULE
ZINC04292977
   19    20     0     0     0
SMALL
USER_CHARGES

@<TRIPOS>ATOM
      1 C1         -0.0167    1.3781    0.0096 C.ar      1 <0>        -0.0865
      2 C2          1.1658    2.0975    0.0022 C.ar      1 <0>        -0.1328
      3 C3          2.3752    1.4328   -0.0083 C.ar      1 <0>        -0.0602
      4 C4          2.3971    0.0390   -0.0143 C.ar      1 <0>        -0.1636
      5 C5          1.2056   -0.6862   -0.0147 C.ar      1 <0>        -0.0395
      6 C6          0.0021   -0.0041    0.0020 C.ar      1 <0>        -0.1314
      7 C7          1.2040   -2.1863   -0.0459 C.3       1 <0>        -0.0742
      8 C8          2.5192   -2.7851    0.3308 C.2       1 <0>        -0.0731
      9 C9          3.6632   -2.1187    0.3449 C.2       1 <0>        -0.2226
     10 C10         3.6865   -0.6898   -0.0140 C.2       1 <0>         0.4214
     11 O1          4.7271   -0.1289   -0.2999 O.2       1 <0>        -0.4507
     12 H1         -0.9616    1.9009    0.0260 H         1 <0>         0.1296
     13 H2          1.1420    3.1772    0.0043 H         1 <0>         0.1315
     14 H3          3.3004    1.9899   -0.0123 H         1 <0>         0.1345
     15 H4         -0.9273   -0.5541    0.0091 H         1 <0>         0.1310
     16 H5          0.4433   -2.5500    0.6448 H         1 <0>         0.1053
     17 H6          0.9452   -2.5152   -1.0524 H         1 <0>         0.1110
     18 H7          2.5384   -3.8282    0.6099 H         1 <0>         0.1290
     19 H8          4.5785   -2.6220    0.6194 H         1 <0>         0.1415
@<TRIPOS>BOND
     1    1    6 ar
     2    1    2 ar
     3    1   12 1
     4    2    3 ar
     5    2   13 1
     6    3    4 ar
     7    3   14 1
     8    4   10 1
     9    4    5 ar
    10    5    6 ar
    11    5    7 1
    12    6   15 1
    13    7    8 1
    14    7   16 1
    15    7   17 1
    16    8    9 2
    17    8   18 1
    18    9   10 1
    19    9   19 1
    20   10   11 2
@<TRIPOS>MOLECULE
ZINC04292977
   19    20     0     0     0
SMALL
USER_CHARGES

@<TRIPOS>ATOM
      1 C1         -0.0164    1.3568    0.0095 C.ar      1 <0>        -0.1108
      2 C2          1.1685    2.0903    0.0021 C.ar      1 <0>        -0.1187
      3 C3          2.3786    1.4667   -0.0127 C.ar      1 <0>        -0.0983
      4 C4          2.4373    0.0638   -0.0208 C.ar      1 <0>        -0.0775
      5 C5          1.2329   -0.6827   -0.0133 C.ar      1 <0>        -0.0401
      6 C6          0.0021   -0.0041    0.0020 C.ar      1 <0>        -0.1097
      7 C7          1.2917   -2.0866   -0.0208 C.ar      1 <0>        -0.1148
      8 C8          2.5010   -2.7126   -0.0352 C.ar      1 <0>        -0.1012
      9 C9          3.6868   -1.9838   -0.0426 C.ar      1 <0>        -0.1453
     10 C10         3.6713   -0.6172   -0.0357 C.ar      1 <0>         0.1176
     11 O1          4.8369    0.0798   -0.0435 O.3       1 <0>        -0.4935
     12 H1         -0.9633    1.8759    0.0259 H         1 <0>         0.1254
     13 H2          1.1262    3.1695    0.0079 H         1 <0>         0.1251
     14 H3          3.2887    2.0480   -0.0187 H         1 <0>         0.1306
     15 H4         -0.9241   -0.5596    0.0082 H         1 <0>         0.1300
     16 H5          0.3810   -2.6672   -0.0149 H         1 <0>         0.1306
     17 H6          2.5405   -3.7919   -0.0406 H         1 <0>         0.1287
     18 H7          4.6324   -2.5056   -0.0537 H         1 <0>         0.1303
     19 H8          5.1828    0.2775    0.8376 H         1 <0>         0.3917
@<TRIPOS>BOND
     1    1    6 ar
     2    1    2 ar
     3    1   12 1
     4    2    3 ar
     5    2   13 1
     6    3    4 ar
     7    3   14 1
     8    4   10 ar
     9    4    5 ar
    10    5    6 ar
    11    5    7 ar
    12    6   15 1
    13    7    8 ar
    14    7   16 1
    15    8    9 ar
    16    8   17 1
    17    9   10 ar
    18    9   18 1
    19   10   11 1
    20   11   19 1
@<TRIPOS>MOLECULE
ZINC00001281
   29    30     0     0     0
SMALL
USER_CHARGES

@<TRIPOS>ATOM
      1 C1         -0.1806    1.0357    0.2000 C.ar      1 <0>        -0.1222
      2 C2          0.9245    1.8481    0.0217 C.ar      1 <0>        -0.1361
      3 C3          2.1862    1.2928   -0.0570 C.ar      1 <0>        -0.1180
      4 C4          2.3450   -0.0840    0.0433 C.ar      1 <0>         0.1573
      5 C5          1.2329   -0.8970    0.2224 C.ar      1 <0>        -0.0156
      6 C6         -0.0262   -0.3347    0.3002 C.ar      1 <0>        -0.1119
      7 C7          1.4001   -2.3907    0.3312 C.3       1 <0>        -0.1565
      8 C8          1.7182   -2.7580    1.7577 C.2       1 <0>         0.5052
      9 O1          1.8014   -1.8875    2.6073 O.co2     1 <0>        -0.6883
     10 O2          1.8923   -3.9257    2.0622 O.co2     1 <0>        -0.7010
     11 N1          3.6199   -0.6493   -0.0363 N.pl3     1 <0>        -0.6799
     12 C9          3.9705   -1.4310   -1.1417 C.ar      1 <0>         0.2371
     13 C10         3.3529   -1.2194   -2.3686 C.ar      1 <0>        -0.0923
     14 C11         3.7019   -1.9940   -3.4588 C.ar      1 <0>        -0.0712
     15 C12         4.6640   -2.9789   -3.3298 C.ar      1 <0>        -0.1540
     16 C13         5.2803   -3.1928   -2.1105 C.ar      1 <0>        -0.0674
     17 C14         4.9413   -2.4177   -1.0174 C.ar      1 <0>        -0.0897
     18 Cl1         5.7217   -2.6815    0.5107 Cl        1 <0>        -0.0512
     19 Cl2         2.1442    0.0160   -2.5315 Cl        1 <0>        -0.0473
     20 H1         -1.1659    1.4731    0.2657 H         1 <0>         0.1132
     21 H2          0.8003    2.9181   -0.0565 H         1 <0>         0.1137
     22 H3          3.0486    1.9277   -0.1966 H         1 <0>         0.1147
     23 H4         -0.8913   -0.9662    0.4394 H         1 <0>         0.1149
     24 H5          0.4765   -2.8828    0.0266 H         1 <0>         0.0630
     25 H6          2.2146   -2.7133   -0.3173 H         1 <0>         0.0663
     26 H7          4.2621   -0.4997    0.6751 H         1 <0>         0.4125
     27 H8          3.2224   -1.8301   -4.4125 H         1 <0>         0.1341
     28 H9          4.9344   -3.5828   -4.1833 H         1 <0>         0.1345
     29 H10         6.0307   -3.9634   -2.0133 H         1 <0>         0.1361
@<TRIPOS>BOND
     1    1    6 ar
     2    1    2 ar
     3    1   20 1
     4    2    3 ar
     5    2   21 1
     6    3    4 ar
     7    3   22 1
     8    4    5 ar
     9    4   11 1
    10    5    6 ar
    11    5    7 1
    12    6   23 1
    13    7    8 1
    14    7   24 1
    15    7   25 1
    16    8    9 2
    17    8   10 1
    18   11   12 1
    19   11   26 1
    20   12   17 ar
    21   12   13 ar
    22   13   14 ar
    23   13   19 1
    24   14   15 ar
    25   14   27 1
    26   15   16 ar
    27   15   28 1
    28   16   17 ar
    29   16   29 1
    30   17   18 1
@<TRIPOS>MOLECULE
ZINC00000053
   20    20     0     0     0
SMALL
USER_CHARGES

@<TRIPOS>ATOM
      1 C1         -1.4238    1.4221    1.2577 C.3       1 <0>        -0.1370
      2 C2         -1.3441   -0.0813    1.1904 C.2       1 <0>         0.4790
      3 O1         -1.4532   -0.7378    2.1988 O.2       1 <0>        -0.5137
      4 O2         -1.1519   -0.6914    0.0093 O.3       1 <0>        -0.2785
      5 C3         -0.9822   -2.0375    0.0080 C.ar      1 <0>         0.1140
      6 C4          0.2935   -2.5790    0.0577 C.ar      1 <0>        -0.1438
      7 C5          0.4647   -3.9491    0.0557 C.ar      1 <0>        -0.1168
      8 C6         -0.6330   -4.7933    0.0047 C.ar      1 <0>        -0.1375
      9 C7         -1.9078   -4.2739   -0.0447 C.ar      1 <0>        -0.0755
     10 C8         -2.0966   -2.8882   -0.0379 C.ar      1 <0>        -0.1363
     11 C9         -3.4564   -2.3257   -0.0844 C.2       1 <0>         0.5228
     12 O3         -4.4256   -3.0711   -0.1243 O.co2     1 <0>        -0.6853
     13 O4         -3.6170   -1.1130   -0.0830 O.co2     1 <0>        -0.6764
     14 H1         -1.5815    1.7317    2.2908 H         1 <0>         0.0951
     15 H2         -0.4932    1.8522    0.8875 H         1 <0>         0.0914
     16 H3         -2.2544    1.7698    0.6434 H         1 <0>         0.1039
     17 H4          1.1543   -1.9280    0.0976 H         1 <0>         0.1207
     18 H5          1.4605   -4.3654    0.0938 H         1 <0>         0.1210
     19 H6         -0.4882   -5.8635    0.0032 H         1 <0>         0.1200
     20 H7         -2.7604   -4.9357   -0.0844 H         1 <0>         0.1328
@<TRIPOS>BOND
     1    1    2 1
     2    1   14 1
     3    1   15 1
     4    1   16 1
     5    2    3 2
     6    2    4 1
     7    4    5 1
     8    5   10 ar
     9    5    6 ar
    10    6    7 ar
    11    6   17 1
    12    7    8 ar
    13    7   18 1
    14    8    9 ar
    15    8   19 1
    16    9   10 ar
    17    9   20 1
    18   10   11 1
    19   11   12 2
    20   11   13 1
@<TRIPOS>MOLECULE
ZINC00000909
   31    32     0     0     0
SMALL
USER_CHARGES

@<TRIPOS>ATOM
      1 C1          4.2827    1.3971    3.6211 C.ar      1 <0>        -0.0901
      2 C2          4.0812    2.1059    2.4498 C.ar      1 <0>        -0.1418
      3 C3          3.8899    1.4364    1.2591 C.ar      1 <0>        -0.0669
      4 C4          3.9003    0.0401    1.2374 C.ar      1 <0>        -0.1712
      5 C5          4.1046   -0.6688    2.4231 C.ar      1 <0>        -0.0491
      6 C6          4.2942    0.0135    3.6068 C.ar      1 <0>        -0.1320
      7 C7          3.6954   -0.6841   -0.0347 C.2       1 <0>         0.4587
      8 O1          3.4192   -0.0692   -1.0468 O.2       1 <0>        -0.4549
      9 C8          3.8259   -2.1508   -0.0764 C.ar      1 <0>        -0.2425
     10 C9          2.6853   -2.9574   -0.1430 C.ar      1 <0>        -0.0584
     11 C10         2.8144   -4.3276   -0.1817 C.ar      1 <0>        -0.1775
     12 C11         4.0705   -4.9145   -0.1546 C.ar      1 <0>        -0.0608
     13 C12         5.2057   -4.1334   -0.0885 C.ar      1 <0>        -0.0949
     14 C13         5.0971   -2.7485   -0.0554 C.ar      1 <0>         0.2645
     15 N1          6.2380   -1.9602    0.0044 N.pl3     1 <0>        -0.8631
     16 C14         6.5653   -4.7827   -0.0586 C.3       1 <0>        -0.1515
     17 C15         7.0197   -4.9313    1.3705 C.2       1 <0>         0.4954
     18 O2          6.3057   -4.5457    2.2804 O.co2     1 <0>        -0.6822
     19 O3          8.1014   -5.4371    1.6168 O.co2     1 <0>        -0.7048
     20 H1          4.4361    1.9264    4.5500 H         1 <0>         0.1241
     21 H2          4.0735    3.1857    2.4680 H         1 <0>         0.1249
     22 H3          3.7321    1.9908    0.3458 H         1 <0>         0.1298
     23 H4          4.1134   -1.7487    2.4134 H         1 <0>         0.1413
     24 H5          4.4523   -0.5335    4.5245 H         1 <0>         0.1298
     25 H6          1.7043   -2.5059   -0.1637 H         1 <0>         0.1147
     26 H7          1.9325   -4.9489   -0.2331 H         1 <0>         0.1166
     27 H8          4.1606   -5.9903   -0.1850 H         1 <0>         0.1171
     28 H9          6.1584   -0.9986    0.1036 H         1 <0>         0.3892
     29 H10         7.1149   -2.3709   -0.0532 H         1 <0>         0.4037
     30 H11         6.5089   -5.7658   -0.5261 H         1 <0>         0.0704
     31 H12         7.2766   -4.1617   -0.6033 H         1 <0>         0.0616
@<TRIPOS>BOND
     1    1    6 ar
     2    1    2 ar
     3    1   20 1
     4    2    3 ar
     5    2   21 1
     6    3    4 ar
     7    3   22 1
     8    4    5 ar
     9    4    7 1
    10    5    6 ar
    11    5   23 1
    12    6   24 1
    13    7    8 2
    14    7    9 1
    15    9   14 ar
    16    9   10 ar
    17   10   11 ar
    18   10   25 1
    19   11   12 ar
    20   11   26 1
    21   12   13 ar
    22   12   27 1
    23   13   14 ar
    24   13   16 1
    25   14   15 1
    26   15   28 1
    27   15   29 1
    28   16   17 1
    29   16   30 1
    30   16   31 1
    31   17   18 2
    32   17   19 1
@<TRIPOS>MOLECULE
ZINC00001995
   39    41     0     0     0
SMALL
USER_CHARGES
1-isopropyl-7-methyl-4-phenyl-quinazolin-2-one
@<TRIPOS>ATOM
      1 C1         -1.3127    2.0374   -0.8264 C.3       1 <0>        -0.1251
      2 C2          0.0004    1.3277   -0.6184 C.ar      1 <0>        -0.0060
      3 C3          1.1844    2.0522   -0.6457 C.ar      1 <0>        -0.1565
      4 C4          2.3876    1.4285   -0.4651 C.ar      1 <0>        -0.0348
      5 C5          2.4236    0.0500   -0.2513 C.ar      1 <0>        -0.1932
      6 C6          1.2243   -0.6884   -0.2229 C.ar      1 <0>         0.2154
      7 C7          0.0135   -0.0356   -0.4085 C.ar      1 <0>        -0.1766
      8 N1          1.2941   -2.0508   -0.0087 N.am      1 <0>        -0.5357
      9 C8          2.4863   -2.6483    0.1671 C.2       1 <0>         0.6482
     10 O1          2.5126   -3.8524    0.3535 O.2       1 <0>        -0.5123
     11 N2          3.6412   -1.9810    0.1469 N.2       1 <0>        -0.5348
     12 C9          3.6871   -0.6724   -0.0504 C.2       1 <0>         0.3420
     13 C10         4.9795    0.0447   -0.0689 C.ar      1 <0>        -0.0752
     14 C11         5.2031    1.0634   -0.9976 C.ar      1 <0>        -0.0896
     15 C12         6.4095    1.7321   -1.0058 C.ar      1 <0>        -0.1234
     16 C13         7.4011    1.3880   -0.1039 C.ar      1 <0>        -0.0924
     17 C14         7.1881    0.3759    0.8155 C.ar      1 <0>        -0.1231
     18 C15         5.9845   -0.2974    0.8383 C.ar      1 <0>        -0.0619
     19 C16         0.0656   -2.8482    0.0266 C.3       1 <0>         0.1283
     20 C17         0.1164   -3.9121   -1.0717 C.3       1 <0>        -0.1705
     21 C18        -0.0613   -3.5291    1.3909 C.3       1 <0>        -0.1702
     22 H1         -1.7058    2.3637    0.1364 H         1 <0>         0.0819
     23 H2         -1.1593    2.9044   -1.4689 H         1 <0>         0.0765
     24 H3         -2.0226    1.3573   -1.2972 H         1 <0>         0.0733
     25 H4          1.1547    3.1190   -0.8113 H         1 <0>         0.1362
     26 H5          3.3043    1.9991   -0.4875 H         1 <0>         0.1474
     27 H6         -0.9124   -0.5913   -0.3885 H         1 <0>         0.1407
     28 H7          4.4317    1.3299   -1.7049 H         1 <0>         0.1338
     29 H8          6.5823    2.5229   -1.7207 H         1 <0>         0.1326
     30 H9          8.3454    1.9120   -0.1175 H         1 <0>         0.1296
     31 H10         7.9662    0.1124    1.5165 H         1 <0>         0.1320
     32 H11         5.8196   -1.0870    1.5564 H         1 <0>         0.1336
     33 H12        -0.7941   -2.1983   -0.1365 H         1 <0>         0.0990
     34 H13         0.9762   -4.5620   -0.9085 H         1 <0>         0.0847
     35 H14        -0.7976   -4.5054   -1.0454 H         1 <0>         0.0751
     36 H15         0.2068   -3.4270   -2.0436 H         1 <0>         0.0556
     37 H16        -0.0975   -2.7711    2.1733 H         1 <0>         0.0557
     38 H17        -0.9753   -4.1224    1.4172 H         1 <0>         0.0752
     39 H18         0.7985   -4.1789    1.5540 H         1 <0>         0.0843
@<TRIPOS>BOND
     1    1    2 1
     2    1   22 1
     3    1   23 1
     4    1   24 1
     5    2    7 ar
     6    2    3 ar
     7    3    4 ar
     8    3   25 1
     9    4    5 ar
    10    4   26 1
    11    5   12 1
    12    5    6 ar
    13    6    7 ar
    14    6    8 1
    15    7   27 1
    16    8    9 am
    17    8   19 1
    18    9   10 2
    19    9   11 1
    20   11   12 2
    21   12   13 1
    22   13   18 ar
    23   13   14 ar
    24   14   15 ar
    25   14   28 1
    26   15   16 ar
    27   15   29 1
    28   16   17 ar
    29   16   30 1
    30   17   18 ar
    31   17   31 1
    32   18   32 1
    33   19   20 1
    34   19   21 1
    35   19   33 1
    36   20   34 1
    37   20   35 1
    38   20   36 1
    39   21   37 1
    40   21   38 1
    41   21   39 1
@<TRIPOS>MOLECULE
ZINC12421848
   31    33     0     0     0
SMALL
USER_CHARGES

@<TRIPOS>ATOM
      1 C1         -0.0165    1.3817    0.0162 C.ar      1 <0>        -0.1486
      2 C2          1.1632    2.0930    0.0132 C.ar      1 <0>         0.0065
      3 C3          2.3791    1.4104   -0.0109 C.ar      1 <0>        -0.1851
      4 C4          2.4009    0.0054   -0.0321 C.ar      1 <0>         0.2278
      5 C5          1.1963   -0.6928   -0.0282 C.ar      1 <0>        -0.2350
      6 C6          0.0025   -0.0054   -0.0048 C.ar      1 <0>        -0.0035
      7 C7          1.1982   -2.1996   -0.0512 C.3       1 <0>         0.5086
      8 F1         -0.1201   -2.6678   -0.0424 F         1 <0>        -0.1646
      9 F2          1.8444   -2.6476   -1.2083 F         1 <0>        -0.1737
     10 F3          1.8720   -2.6823    1.0759 F         1 <0>        -0.1737
     11 N1          3.6015   -0.6707   -0.0569 N.pl3     1 <0>        -0.5927
     12 H1          3.5880   -1.6405   -0.0712 H         1 <0>         0.4263
     13 C8          4.7863   -0.0457   -0.0626 C.2       1 <0>         0.2648
     14 C9          4.8922    1.3298   -0.0430 C.2       1 <0>        -0.3415
     15 C10         3.6623    2.1373   -0.0154 C.2       1 <0>         0.4424
     16 O1          3.7024    3.3551    0.0027 O.2       1 <0>        -0.4803
     17 C11         6.2125    1.9782   -0.0490 C.2       1 <0>         0.5858
     18 O2          7.2217    1.3039    0.0318 O.2       1 <0>        -0.4856
     19 N2          6.3040    3.3195   -0.1441 N.am      1 <0>        -0.6121
     20 C12         7.5493    3.9243   -0.2579 C.2       1 <0>         0.2777
     21 N3          8.7346    3.3545   -0.2954 N.2       1 <0>        -0.5272
     22 C13         9.8349    4.0755   -0.4082 C.2       1 <0>         0.0633
     23 C14         9.6851    5.4207   -0.4828 C.2       1 <0>        -0.2503
     24 S1          7.9079    5.5635   -0.3886 S.3       1 <0>         0.1077
     25 H2         -0.9604    1.9062    0.0394 H         1 <0>         0.1516
     26 H3          1.1466    3.1727    0.0291 H         1 <0>         0.1565
     27 H4         -0.9288   -0.5524   -0.0019 H         1 <0>         0.1540
     28 H5          5.6889   -0.6384   -0.0828 H         1 <0>         0.1920
     29 H6          5.5003    3.8625   -0.1331 H         1 <0>         0.4351
     30 H7         10.8108    3.6140   -0.4392 H         1 <0>         0.1754
     31 H8         10.4342    6.1930   -0.5766 H         1 <0>         0.1987
@<TRIPOS>BOND
     1    1    6 ar
     2    1    2 ar
     3    1   25 1
     4    2    3 ar
     5    2   26 1
     6    3   15 1
     7    3    4 ar
     8    4    5 ar
     9    4   11 1
    10    5    6 ar
    11    5    7 1
    12    6   27 1
    13    7    8 1
    14    7    9 1
    15    7   10 1
    16   11   12 1
    17   11   13 1
    18   13   14 2
    19   13   28 1
    20   14   15 1
    21   14   17 1
    22   15   16 2
    23   17   18 2
    24   17   19 am
    25   19   20 1
    26   19   29 1
    27   20   24 1
    28   20   21 2
    29   21   22 1
    30   22   23 2
    31   22   30 1
    32   23   24 1
    33   23   31 1
@<TRIPOS>MOLECULE
ZINC12421848
   30    32     0     0     0
SMALL
USER_CHARGES

@<TRIPOS>ATOM
      1 C1         -0.0168    1.3876    0.0097 C.ar      1 <0>        -0.1925
      2 C2          1.1447    2.1009    0.0024 C.ar      1 <0>        -0.0029
      3 C3          2.3734    1.4252   -0.0129 C.ar      1 <0>        -0.1944
      4 C4          2.3957    0.0097   -0.0206 C.ar      1 <0>         0.2227
      5 C5          1.1788   -0.6906   -0.0133 C.ar      1 <0>        -0.2146
      6 C6          0.0021   -0.0041    0.0020 C.ar      1 <0>        -0.0319
      7 C7          1.1742   -2.1976   -0.0218 C.3       1 <0>         0.5253
      8 F1         -0.1461   -2.6600   -0.0121 F         1 <0>        -0.1924
      9 F2          1.8216   -2.6594   -1.1728 F         1 <0>        -0.1753
     10 F3          1.8429   -2.6724    1.1117 F         1 <0>        -0.1754
     11 N1          3.5643   -0.6465   -0.0344 N.ar      1 <0>        -0.5805
     12 C8          4.7111   -0.0174   -0.0411 C.ar      1 <0>         0.2248
     13 C9          4.7817    1.3857   -0.0342 C.ar      1 <0>        -0.3885
     14 C10         3.5975    2.1317   -0.0203 C.ar      1 <0>         0.3580
     15 O1          3.6237    3.4840   -0.0137 O.3       1 <0>        -0.6103
     16 C11         6.0888    2.0649   -0.0416 C.2       1 <0>         0.5666
     17 O2          6.1428    3.2799   -0.0356 O.2       1 <0>        -0.4557
     18 N2          7.2249    1.3399   -0.0550 N.am      1 <0>        -0.6303
     19 C12         8.4574    1.9803   -0.0619 C.2       1 <0>         0.3096
     20 N3          8.7077    3.2719   -0.0513 N.2       1 <0>        -0.5333
     21 C13         9.9471    3.7267   -0.0603 C.2       1 <0>         0.0741
     22 C14        10.9414    2.8054   -0.0807 C.2       1 <0>        -0.2706
     23 S1          9.9933    1.2925   -0.0785 S.3       1 <0>         0.0674
     24 H1         -0.9628    1.9084    0.0260 H         1 <0>         0.1253
     25 H2          1.1189    3.1806    0.0080 H         1 <0>         0.1331
     26 H3         -0.9308   -0.5483    0.0083 H         1 <0>         0.1302
     27 H4          5.6262   -0.5908   -0.0518 H         1 <0>         0.1328
     28 H5          7.1818    0.3709   -0.0598 H         1 <0>         0.4168
     29 H6         10.1594    4.7856   -0.0520 H         1 <0>         0.1697
     30 H7         12.0119    2.9475   -0.0910 H         1 <0>         0.1925
@<TRIPOS>BOND
     1    1    6 ar
     2    1    2 ar
     3    1   24 1
     4    2    3 ar
     5    2   25 1
     6    3   14 ar
     7    3    4 ar
     8    4    5 ar
     9    4   11 ar
    10    5    6 ar
    11    5    7 1
    12    6   26 1
    13    7    8 1
    14    7    9 1
    15    7   10 1
    16   11   12 ar
    17   12   13 ar
    18   12   27 1
    19   13   14 ar
    20   13   16 1
    21   14   15 1
    22   16   17 2
    23   16   18 am
    24   18   19 1
    25   18   28 1
    26   19   23 1
    27   19   20 2
    28   20   21 1
    29   21   22 2
    30   21   29 1
    31   22   23 1
    32   22   30 1
@<TRIPOS>MOLECULE
ZINC03805769
   48    51     0     0     0
SMALL
USER_CHARGES
2-[2-(4-chlorophenyl)-6,6-dimethyl-1-phenyl-5,7-dihydropyrrolizin-3-yl]acetic acid
@<TRIPOS>ATOM
      1 C1         -2.2532   -1.4002    4.0865 C.3       1 <0>        -0.1356
      2 C2         -3.1452   -0.5402    3.1888 C.3       1 <0>        -0.0760
      3 C3         -3.2276    0.9088    3.7180 C.3       1 <0>        -0.0445
      4 C4         -2.1209    1.6373    2.9823 C.2       1 <0>         0.0128
      5 C5         -1.3852    2.7825    3.0385 C.2       1 <0>        -0.1130
      6 C6         -0.4588    2.7332    1.8996 C.2       1 <0>        -0.1371
      7 C7         -0.7181    1.5718    1.2479 C.2       1 <0>         0.1342
      8 N1         -1.7212    0.9110    1.9042 N.pl3     1 <0>        -0.4574
      9 C8         -2.5000   -0.3374    1.8023 C.3       1 <0>         0.1145
     10 C9         -0.0127    1.0858    0.0080 C.3       1 <0>        -0.1077
     11 C10        -0.7416    1.5850   -1.2129 C.2       1 <0>         0.4690
     12 O1         -1.7322    2.2656   -1.0889 O.co2     1 <0>        -0.6251
     13 C11         0.5559    3.7511    1.5337 C.ar      1 <0>         0.0222
     14 C12         1.6305    4.0046    2.3845 C.ar      1 <0>        -0.0994
     15 C13         2.5740    4.9499    2.0376 C.ar      1 <0>        -0.1175
     16 C14         2.4497    5.6526    0.8513 C.ar      1 <0>        -0.0415
     17 C15         1.3816    5.4080    0.0051 C.ar      1 <0>        -0.1098
     18 C16         0.4351    4.4616    0.3408 C.ar      1 <0>        -0.0837
     19 Cl1         3.6368    6.8449    0.4236 Cl        1 <0>        -0.0888
     20 C17        -1.4938    3.8609    4.0508 C.ar      1 <0>         0.0167
     21 C18        -2.6573    4.6233    4.1386 C.ar      1 <0>        -0.1100
     22 C19        -2.7549    5.6217    5.0864 C.ar      1 <0>        -0.1213
     23 C20        -1.6964    5.8743    5.9403 C.ar      1 <0>        -0.1330
     24 C21        -0.5371    5.1245    5.8539 C.ar      1 <0>        -0.1217
     25 C22        -0.4306    4.1195    4.9142 C.ar      1 <0>        -0.1079
     26 C23        -4.5402   -1.1550    3.0589 C.3       1 <0>        -0.1351
     27 H1         -2.6778   -1.4401    5.0895 H         1 <0>         0.0616
     28 H2         -2.1911   -2.4088    3.6778 H         1 <0>         0.0589
     29 H3         -1.2551   -0.9643    4.1315 H         1 <0>         0.0594
     30 H4         -3.0508    0.9328    4.7933 H         1 <0>         0.0822
     31 H5         -4.1967    1.3472    3.4800 H         1 <0>         0.0828
     32 H6         -3.2715   -0.2386    1.0387 H         1 <0>         0.0850
     33 H7         -1.8417   -1.1737    1.5673 H         1 <0>         0.0816
     34 H8          0.0021   -0.0041    0.0020 H         1 <0>         0.0691
     35 H9          1.0099    1.4631    0.0003 H         1 <0>         0.0873
     36 H10         1.7264    3.4596    3.3119 H         1 <0>         0.1261
     37 H11         3.4087    5.1449    2.6947 H         1 <0>         0.1267
     38 H12         1.2889    5.9591   -0.9191 H         1 <0>         0.1296
     39 H13        -0.3982    4.2720   -0.3197 H         1 <0>         0.1433
     40 H14        -3.4826    4.4299    3.4694 H         1 <0>         0.1189
     41 H15        -3.6578    6.2099    5.1585 H         1 <0>         0.1166
     42 H16        -1.7755    6.6596    6.6775 H         1 <0>         0.1145
     43 H17         0.2860    5.3259    6.5234 H         1 <0>         0.1165
     44 H18         0.4747    3.5343    4.8481 H         1 <0>         0.1185
     45 H19        -5.1436   -0.5474    2.3844 H         1 <0>         0.0621
     46 H20        -4.4561   -2.1659    2.6602 H         1 <0>         0.0612
     47 H21        -5.0148   -1.1895    4.0395 H         1 <0>         0.0640
     48 O2         -0.2903    1.2736   -2.4381 O.co2     1 <0>        -0.7691
@<TRIPOS>BOND
     1    1    2 1
     2    1   27 1
     3    1   28 1
     4    1   29 1
     5    2    9 1
     6    2    3 1
     7    2   26 1
     8    3    4 1
     9    3   30 1
    10    3   31 1
    11    4    8 1
    12    4    5 2
    13    5    6 1
    14    5   20 1
    15    6    7 2
    16    6   13 1
    17    7    8 1
    18    7   10 1
    19    8    9 1
    20    9   32 1
    21    9   33 1
    22   10   11 1
    23   10   34 1
    24   10   35 1
    25   11   12 2
    26   11   48 1
    27   13   18 ar
    28   13   14 ar
    29   14   15 ar
    30   14   36 1
    31   15   16 ar
    32   15   37 1
    33   16   17 ar
    34   16   19 1
    35   17   18 ar
    36   17   38 1
    37   18   39 1
    38   20   25 ar
    39   20   21 ar
    40   21   22 ar
    41   21   40 1
    42   22   23 ar
    43   22   41 1
    44   23   24 ar
    45   23   42 1
    46   24   25 ar
    47   24   43 1
    48   25   44 1
    49   26   45 1
    50   26   46 1
    51   26   47 1
@<TRIPOS>MOLECULE
ZINC00002272
   32    33     0     0     0
SMALL
USER_CHARGES

@<TRIPOS>ATOM
      1 C1          0.1060    0.7764   -0.6172 C.3       1 <0>        -0.1130
      2 C2          0.3971   -0.7015   -0.3489 C.3       1 <0>        -0.1341
      3 H1         -0.5231   -1.2771   -0.4492 H         1 <0>         0.0715
      4 C3          0.9397   -0.8611    1.0479 C.ar      1 <0>        -0.0379
      5 C4          2.1066   -0.2129    1.4136 C.ar      1 <0>        -0.0761
      6 C5          2.6120   -0.3538    2.6939 C.ar      1 <0>        -0.1321
      7 C6          1.9549   -1.1424    3.6154 C.ar      1 <0>        -0.0781
      8 C7          0.7766   -1.7992    3.2534 C.ar      1 <0>        -0.1713
      9 C8          0.2693   -1.6482    1.9606 C.ar      1 <0>        -0.0812
     10 C9          0.0673   -2.6456    4.2349 C.2       1 <0>         0.4453
     11 O1          0.4288   -2.6639    5.3952 O.2       1 <0>        -0.4594
     12 C10        -1.0815   -3.4698    3.8059 C.ar      1 <0>        -0.1536
     13 C11        -1.1036   -4.0311    2.5270 C.ar      1 <0>        -0.0786
     14 C12        -2.1789   -4.7998    2.1333 C.ar      1 <0>        -0.1272
     15 C13        -3.2346   -5.0151    3.0019 C.ar      1 <0>        -0.0969
     16 C14        -3.2193   -4.4620    4.2704 C.ar      1 <0>        -0.1337
     17 C15        -2.1478   -3.6960    4.6794 C.ar      1 <0>        -0.0707
     18 C16         1.4134   -1.2018   -1.3428 C.2       1 <0>         0.5019
     19 O2          1.8632   -0.4463   -2.1874 O.co2     1 <0>        -0.6905
     20 O3          1.7858   -2.3621   -1.3023 O.co2     1 <0>        -0.6932
     21 H2          1.0261    1.3520   -0.5169 H         1 <0>         0.0537
     22 H3         -0.2865    0.8918   -1.6275 H         1 <0>         0.0560
     23 H4         -0.6291    1.1382    0.1017 H         1 <0>         0.0337
     24 H5          2.6254    0.4056    0.6961 H         1 <0>         0.1270
     25 H6          3.5232    0.1547    2.9724 H         1 <0>         0.1248
     26 H7          2.3508   -1.2521    4.6142 H         1 <0>         0.1269
     27 H8         -0.6435   -2.1499    1.6753 H         1 <0>         0.1328
     28 H9         -0.2807   -3.8632    1.8479 H         1 <0>         0.1433
     29 H10        -2.1973   -5.2344    1.1448 H         1 <0>         0.1314
     30 H11        -4.0744   -5.6172    2.6882 H         1 <0>         0.1250
     31 H12        -4.0467   -4.6338    4.9430 H         1 <0>         0.1261
     32 H13        -2.1350   -3.2687    5.6711 H         1 <0>         0.1282
@<TRIPOS>BOND
     1    1    2 1
     2    1   21 1
     3    1   22 1
     4    1   23 1
     5    2    3 1
     6    2    4 1
     7    2   18 1
     8    4    9 ar
     9    4    5 ar
    10    5    6 ar
    11    5   24 1
    12    6    7 ar
    13    6   25 1
    14    7    8 ar
    15    7   26 1
    16    8    9 ar
    17    8   10 1
    18    9   27 1
    19   10   11 2
    20   10   12 1
    21   12   17 ar
    22   12   13 ar
    23   13   14 ar
    24   13   28 1
    25   14   15 ar
    26   14   29 1
    27   15   16 ar
    28   15   30 1
    29   16   17 ar
    30   16   31 1
    31   17   32 1
    32   18   19 2
    33   18   20 1
@<TRIPOS>MOLECULE
ZINC00005560
   32    33     0     0     0
SMALL
USER_CHARGES

@<TRIPOS>ATOM
      1 C1          0.1837    2.1782   -0.7349 C.3       1 <0>        -0.1188
      2 C2         -0.1197    0.6957   -0.5090 C.3       1 <0>        -0.1339
      3 H1         -1.1874    0.5193   -0.6394 H         1 <0>         0.0719
      4 C3          0.6514   -0.1323   -1.5045 C.ar      1 <0>        -0.0405
      5 C4          2.0343   -0.0771   -1.5244 C.ar      1 <0>        -0.0427
      6 C5          2.7503   -0.8339   -2.4350 C.ar      1 <0>        -0.1389
      7 C6          2.0894   -1.6493   -3.3300 C.ar      1 <0>        -0.0755
      8 C7          0.6941   -1.7103   -3.3152 C.ar      1 <0>        -0.1772
      9 C8         -0.0221   -0.9474   -2.3896 C.ar      1 <0>        -0.0874
     10 C9         -0.0208   -2.5813   -4.2707 C.2       1 <0>         0.4445
     11 O1          0.6029   -3.3486   -4.9776 O.2       1 <0>        -0.4604
     12 C10        -1.4938   -2.5197   -4.3670 C.ar      1 <0>        -0.1504
     13 C11        -2.1594   -1.3068   -4.1748 C.ar      1 <0>        -0.0807
     14 C12        -3.5346   -1.2565   -4.2666 C.ar      1 <0>        -0.1291
     15 C13        -4.2550   -2.4041   -4.5480 C.ar      1 <0>        -0.0976
     16 C14        -3.6022   -3.6092   -4.7395 C.ar      1 <0>        -0.1314
     17 C15        -2.2269   -3.6730   -4.6564 C.ar      1 <0>        -0.0699
     18 C16         0.2866    0.3072    0.8893 C.2       1 <0>         0.4999
     19 O2         -0.2228    0.8616    1.8483 O.co2     1 <0>        -0.6961
     20 O3          1.1246   -0.5615    1.0615 O.co2     1 <0>        -0.6861
     21 H2          1.2515    2.3545   -0.6046 H         1 <0>         0.0479
     22 H3         -0.1101    2.4592   -1.7463 H         1 <0>         0.0409
     23 H4         -0.3740    2.7770   -0.0149 H         1 <0>         0.0613
     24 H5          2.5569    0.5599   -0.8262 H         1 <0>         0.1239
     25 H6          3.8292   -0.7857   -2.4452 H         1 <0>         0.1228
     26 H7          2.6494   -2.2389   -4.0406 H         1 <0>         0.1249
     27 H8         -1.1010   -0.9929   -2.3700 H         1 <0>         0.1298
     28 H9         -1.5985   -0.4106   -3.9544 H         1 <0>         0.1386
     29 H10        -4.0505   -0.3193   -4.1182 H         1 <0>         0.1295
     30 H11        -5.3318   -2.3591   -4.6180 H         1 <0>         0.1251
     31 H12        -4.1706   -4.5010   -4.9585 H         1 <0>         0.1268
     32 H13        -1.7183   -4.6132   -4.8105 H         1 <0>         0.1291
@<TRIPOS>BOND
     1    1    2 1
     2    1   21 1
     3    1   22 1
     4    1   23 1
     5    2    3 1
     6    2    4 1
     7    2   18 1
     8    4    9 ar
     9    4    5 ar
    10    5    6 ar
    11    5   24 1
    12    6    7 ar
    13    6   25 1
    14    7    8 ar
    15    7   26 1
    16    8    9 ar
    17    8   10 1
    18    9   27 1
    19   10   11 2
    20   10   12 1
    21   12   17 ar
    22   12   13 ar
    23   13   14 ar
    24   13   28 1
    25   14   15 ar
    26   14   29 1
    27   15   16 ar
    28   15   30 1
    29   16   17 ar
    30   16   31 1
    31   17   32 1
    32   18   19 2
    33   18   20 1
@<TRIPOS>MOLECULE
ZINC38141758
   32    32     0     0     0
SMALL
USER_CHARGES

@<TRIPOS>ATOM
      1 C1         -0.0187    1.5258    0.0104 C.3       1 <0>        -0.1171
      2 C2          0.0021   -0.0041    0.0020 C.3       1 <0>        -0.1346
      3 H1          0.5123   -0.3556   -0.8948 H         1 <0>         0.0688
      4 C3         -1.4117   -0.5257    0.0127 C.ar      1 <0>        -0.0283
      5 C4         -2.2591   -0.2043    1.0565 C.ar      1 <0>        -0.0789
      6 C5         -3.5560   -0.6827    1.0663 C.ar      1 <0>        -0.1224
      7 C6         -4.0056   -1.4823    0.0321 C.ar      1 <0>        -0.1045
      8 C7         -3.1585   -1.8029   -1.0121 C.ar      1 <0>        -0.1215
      9 C8         -1.8629   -1.3209   -1.0241 C.ar      1 <0>        -0.1299
     10 C9         -5.4191   -2.0047    0.0433 C.3       1 <0>        -0.0688
     11 C10        -6.3366   -1.0086   -0.6687 C.3       1 <0>        -0.0917
     12 C11        -5.9482   -0.9236   -2.1461 C.3       1 <0>        -0.1490
     13 C12        -7.7883   -1.4770   -0.5491 C.3       1 <0>        -0.1463
     14 C13         0.7309   -0.5033    1.2229 C.2       1 <0>         0.5000
     15 O1          0.1557   -1.2165    2.0272 O.co2     1 <0>        -0.6863
     16 O2          1.8959   -0.1939    1.4064 O.co2     1 <0>        -0.6999
     17 H2          1.0039    1.9031    0.0027 H         1 <0>         0.0588
     18 H3         -0.5459    1.8868   -0.8726 H         1 <0>         0.0394
     19 H4         -0.5289    1.8773    0.9072 H         1 <0>         0.0469
     20 H5         -1.9079    0.4204    1.8645 H         1 <0>         0.1152
     21 H6         -4.2179   -0.4322    1.8822 H         1 <0>         0.1106
     22 H7         -3.5096   -2.4278   -1.8199 H         1 <0>         0.1100
     23 H8         -1.2022   -1.5684   -1.8418 H         1 <0>         0.1111
     24 H9         -5.4557   -2.9647   -0.4717 H         1 <0>         0.0650
     25 H10        -5.7512   -2.1322    1.0737 H         1 <0>         0.0658
     26 H11        -6.2328   -0.0260   -0.2086 H         1 <0>         0.0696
     27 H12        -6.6019   -0.2140   -2.6534 H         1 <0>         0.0477
     28 H13        -4.9140   -0.5899   -2.2313 H         1 <0>         0.0635
     29 H14        -6.0521   -1.9062   -2.6062 H         1 <0>         0.0505
     30 H15        -8.0650   -1.5376    0.5035 H         1 <0>         0.0526
     31 H16        -8.4419   -0.7674   -1.0563 H         1 <0>         0.0514
     32 H17        -7.8921   -2.4596   -1.0092 H         1 <0>         0.0524
@<TRIPOS>BOND
     1    1    2 1
     2    1   17 1
     3    1   18 1
     4    1   19 1
     5    2    3 1
     6    2    4 1
     7    2   14 1
     8    4    9 ar
     9    4    5 ar
    10    5    6 ar
    11    5   20 1
    12    6    7 ar
    13    6   21 1
    14    7    8 ar
    15    7   10 1
    16    8    9 ar
    17    8   22 1
    18    9   23 1
    19   10   11 1
    20   10   24 1
    21   10   25 1
    22   11   12 1
    23   11   13 1
    24   11   26 1
    25   12   27 1
    26   12   28 1
    27   12   29 1
    28   13   30 1
    29   13   31 1
    30   13   32 1
    31   14   15 2
    32   14   16 1
@<TRIPOS>MOLECULE
ZINC38141759
   32    32     0     0     0
SMALL
USER_CHARGES

@<TRIPOS>ATOM
      1 C1         -0.0187    1.5258    0.0104 C.3       1 <0>        -0.1161
      2 C2          0.0021   -0.0041    0.0020 C.3       1 <0>        -0.1322
      3 H1          0.5123   -0.3556   -0.8948 H         1 <0>         0.0665
      4 C3          0.7309   -0.5033    1.2229 C.ar      1 <0>        -0.0395
      5 C4          0.2630   -0.1872    2.4847 C.ar      1 <0>        -0.1030
      6 C5          0.9315   -0.6452    3.6046 C.ar      1 <0>        -0.1208
      7 C6          2.0678   -1.4195    3.4627 C.ar      1 <0>        -0.1043
      8 C7          2.5353   -1.7363    2.2010 C.ar      1 <0>        -0.1200
      9 C8          1.8643   -1.2820    1.0811 C.ar      1 <0>        -0.1243
     10 C9          2.7973   -1.9179    4.6836 C.3       1 <0>        -0.0680
     11 C10         2.2317   -3.2785    5.0956 C.3       1 <0>        -0.0934
     12 C11         2.5261   -4.3059    4.0007 C.3       1 <0>        -0.1501
     13 C12         2.8845   -3.7270    6.4047 C.3       1 <0>        -0.1454
     14 C13        -1.4117   -0.5257    0.0127 C.2       1 <0>         0.5043
     15 O1         -1.7102   -1.4919   -0.6684 O.co2     1 <0>        -0.6985
     16 O2         -2.2571    0.0185    0.7025 O.co2     1 <0>        -0.6908
     17 H2          1.0039    1.9031    0.0027 H         1 <0>         0.0363
     18 H3         -0.5459    1.8868   -0.8726 H         1 <0>         0.0472
     19 H4         -0.5289    1.8773    0.9072 H         1 <0>         0.0598
     20 H5         -0.6248    0.4177    2.5955 H         1 <0>         0.1300
     21 H6          0.5663   -0.3977    4.5903 H         1 <0>         0.1130
     22 H7          3.4233   -2.3410    2.0902 H         1 <0>         0.1123
     23 H8          2.2274   -1.5326    0.0953 H         1 <0>         0.1149
     24 H9          3.8586   -2.0192    4.4567 H         1 <0>         0.0652
     25 H10         2.6665   -1.2077    5.5001 H         1 <0>         0.0657
     26 H11         1.1540   -3.1964    5.2365 H         1 <0>         0.0710
     27 H12         2.1232   -5.2752    4.2942 H         1 <0>         0.0494
     28 H13         2.0610   -3.9864    3.0682 H         1 <0>         0.0643
     29 H14         3.6038   -4.3880    3.8598 H         1 <0>         0.0501
     30 H15         2.6748   -2.9951    7.1847 H         1 <0>         0.0522
     31 H16         2.4816   -4.6963    6.6982 H         1 <0>         0.0523
     32 H17         3.9623   -3.8091    6.2637 H         1 <0>         0.0520
@<TRIPOS>BOND
     1    1    2 1
     2    1   17 1
     3    1   18 1
     4    1   19 1
     5    2    3 1
     6    2    4 1
     7    2   14 1
     8    4    9 ar
     9    4    5 ar
    10    5    6 ar
    11    5   20 1
    12    6    7 ar
    13    6   21 1
    14    7    8 ar
    15    7   10 1
    16    8    9 ar
    17    8   22 1
    18    9   23 1
    19   10   11 1
    20   10   24 1
    21   10   25 1
    22   11   12 1
    23   11   13 1
    24   11   26 1
    25   12   27 1
    26   12   28 1
    27   12   29 1
    28   13   30 1
    29   13   31 1
    30   13   32 1
    31   14   15 2
    32   14   16 1
@<TRIPOS>MOLECULE
ZINC00601283
   40    42     0     0     0
SMALL
USER_CHARGES

@<TRIPOS>ATOM
      1 C1         -0.0182    1.5027    0.0102 C.3       1 <0>        -0.0883
      2 C2          0.0021   -0.0042    0.0020 C.2       1 <0>         0.0711
      3 C3          0.0074   -0.7679   -1.0995 C.2       1 <0>        -0.0782
      4 C4          0.0293   -2.1662   -0.6567 C.ar      1 <0>        -0.0368
      5 C5          0.0428   -3.3917   -1.3243 C.ar      1 <0>        -0.0938
      6 C6          0.0625   -4.5656   -0.5961 C.ar      1 <0>         0.0956
      7 C7          0.0688   -4.5275    0.7953 C.ar      1 <0>        -0.1804
      8 C8          0.0551   -3.3226    1.4635 C.ar      1 <0>        -0.0946
      9 C9          0.0357   -2.1316    0.7482 C.ar      1 <0>         0.0803
     10 N1          0.0240   -0.7990    1.1223 N.am      1 <0>        -0.5123
     11 C10         0.0297   -0.3494    2.3928 C.2       1 <0>         0.6115
     12 O1         -1.0174   -0.0751    2.9450 O.2       1 <0>        -0.4412
     13 C11         1.3084   -0.1902    3.1139 C.ar      1 <0>        -0.1622
     14 C12         2.5190   -0.3985    2.4491 C.ar      1 <0>        -0.0360
     15 C13         3.7097   -0.2483    3.1279 C.ar      1 <0>        -0.1193
     16 C14         3.7070    0.1084    4.4664 C.ar      1 <0>         0.0005
     17 C15         2.5096    0.3160    5.1314 C.ar      1 <0>        -0.1284
     18 C16         1.3125    0.1750    4.4621 C.ar      1 <0>        -0.0426
     19 Cl1         5.2103    0.2955    5.3141 Cl        1 <0>        -0.0622
     20 O2          0.0753   -5.7626   -1.2410 O.3       1 <0>        -0.3182
     21 C17         0.0954   -6.9375   -0.4278 C.3       1 <0>         0.0304
     22 C18        -0.0069   -0.2812   -2.5257 C.3       1 <0>        -0.1253
     23 C19         1.4090   -0.0991   -3.0085 C.2       1 <0>         0.4982
     24 O3          2.3431   -0.3421   -2.2636 O.co2     1 <0>        -0.6866
     25 O4          1.6204    0.2911   -4.1441 O.co2     1 <0>        -0.7049
     26 H1          1.0044    1.8799    0.0025 H         1 <0>         0.0804
     27 H2         -0.5453    1.8638   -0.8729 H         1 <0>         0.0881
     28 H3         -0.5284    1.8543    0.9070 H         1 <0>         0.0568
     29 H4          0.0376   -3.4222   -2.4038 H         1 <0>         0.1332
     30 H5          0.0842   -5.4504    1.3560 H         1 <0>         0.1288
     31 H6          0.0595   -3.3039    2.5434 H         1 <0>         0.1161
     32 H7          2.5224   -0.6770    1.4056 H         1 <0>         0.1519
     33 H8          4.6464   -0.4095    2.6151 H         1 <0>         0.1453
     34 H9          2.5140    0.5936    6.1751 H         1 <0>         0.1420
     35 H10         0.3798    0.3418    4.9804 H         1 <0>         0.1449
     36 H11         0.9887   -6.9318    0.1968 H         1 <0>         0.0516
     37 H12        -0.7911   -6.9558    0.2062 H         1 <0>         0.0506
     38 H13         0.1040   -7.8210   -1.0660 H         1 <0>         0.0947
     39 H14        -0.5139   -1.0132   -3.1543 H         1 <0>         0.0698
     40 H15        -0.5343    0.6712   -2.5793 H         1 <0>         0.0692
@<TRIPOS>BOND
     1    1    2 1
     2    1   26 1
     3    1   27 1
     4    1   28 1
     5    2   10 1
     6    2    3 2
     7    3    4 1
     8    3   22 1
     9    4    9 ar
    10    4    5 ar
    11    5    6 ar
    12    5   29 1
    13    6    7 ar
    14    6   20 1
    15    7    8 ar
    16    7   30 1
    17    8    9 ar
    18    8   31 1
    19    9   10 1
    20   10   11 am
    21   11   12 2
    22   11   13 1
    23   13   18 ar
    24   13   14 ar
    25   14   15 ar
    26   14   32 1
    27   15   16 ar
    28   15   33 1
    29   16   17 ar
    30   16   19 1
    31   17   18 ar
    32   17   34 1
    33   18   35 1
    34   20   21 1
    35   21   36 1
    36   21   37 1
    37   21   38 1
    38   22   23 1
    39   22   39 1
    40   22   40 1
    41   23   24 2
    42   23   25 1
@<TRIPOS>MOLECULE
ZINC02570817
   31    32     0     0     0
SMALL
USER_CHARGES

@<TRIPOS>ATOM
      1 C1          0.0095    1.3886   -0.0094 C.ar      1 <0>        -0.1767
      2 C2          1.1937    2.1074    0.0524 C.ar      1 <0>        -0.0592
      3 C3          2.4076    1.4530    0.0878 C.ar      1 <0>        -0.0948
      4 C4          2.4511    0.0644    0.0615 C.ar      1 <0>         0.2659
      5 C5          1.2533   -0.6670   -0.0007 C.ar      1 <0>        -0.2446
      6 C6          0.0313    0.0121   -0.0359 C.ar      1 <0>        -0.0575
      7 C7          1.2843   -2.1396   -0.0296 C.2       1 <0>         0.4537
      8 O1          1.0781   -2.7317   -1.0716 O.2       1 <0>        -0.4386
      9 C8          1.5661   -2.8971    1.2074 C.ar      1 <0>        -0.1466
     10 C9          1.6846   -2.2281    2.4278 C.ar      1 <0>        -0.0526
     11 C10         1.9476   -2.9407    3.5785 C.ar      1 <0>        -0.1044
     12 C11         2.0943   -4.3169    3.5260 C.ar      1 <0>        -0.0649
     13 C12         1.9780   -4.9861    2.3190 C.ar      1 <0>        -0.1062
     14 C13         1.7094   -4.2857    1.1621 C.ar      1 <0>        -0.0596
     15 Br1         2.4556   -5.2862    5.1090 Br        1 <0>        -0.0489
     16 N1          3.6713   -0.5965    0.0960 N.pl3     1 <0>        -0.8635
     17 C14         3.6880    2.2449    0.1544 C.3       1 <0>        -0.1522
     18 C15         4.2362    2.4317   -1.2368 C.2       1 <0>         0.4921
     19 O2          3.6423    1.9649   -2.1938 O.co2     1 <0>        -0.6812
     20 O3          5.2737    3.0495   -1.4054 O.co2     1 <0>        -0.7041
     21 H1         -0.9353    1.9113   -0.0325 H         1 <0>         0.1173
     22 H2          1.1655    3.1868    0.0727 H         1 <0>         0.1178
     23 H3         -0.8943   -0.5424   -0.0838 H         1 <0>         0.1153
     24 H4          1.5708   -1.1549    2.4699 H         1 <0>         0.1451
     25 H5          2.0398   -2.4246    4.5227 H         1 <0>         0.1389
     26 H6          2.0938   -6.0594    2.2846 H         1 <0>         0.1380
     27 H7          1.6141   -4.8093    0.2223 H         1 <0>         0.1428
     28 H8          4.4981   -0.0903    0.0627 H         1 <0>         0.4061
     29 H9          3.6972   -1.5644    0.1535 H         1 <0>         0.3878
     30 H10         3.4896    3.2195    0.6006 H         1 <0>         0.0713
     31 H11         4.4160    1.7082    0.7628 H         1 <0>         0.0634
@<TRIPOS>BOND
     1    1    6 ar
     2    1    2 ar
     3    1   21 1
     4    2    3 ar
     5    2   22 1
     6    3    4 ar
     7    3   17 1
     8    4    5 ar
     9    4   16 1
    10    5    6 ar
    11    5    7 1
    12    6   23 1
    13    7    8 2
    14    7    9 1
    15    9   14 ar
    16    9   10 ar
    17   10   11 ar
    18   10   24 1
    19   11   12 ar
    20   11   25 1
    21   12   13 ar
    22   12   15 1
    23   13   14 ar
    24   13   26 1
    25   14   27 1
    26   16   28 1
    27   16   29 1
    28   17   18 1
    29   17   30 1
    30   17   31 1
    31   18   19 2
    32   18   20 1
@<TRIPOS>MOLECULE
ZINC02769764
   22    23     0     0     0
SMALL
USER_CHARGES

@<TRIPOS>ATOM
      1 C1         -0.0167    1.3786    0.0096 C.ar      1 <0>        -0.1712
      2 C2          1.1695    2.0894    0.0021 C.ar      1 <0>        -0.0675
      3 C3          2.3774    1.4200   -0.0135 C.ar      1 <0>        -0.1944
      4 C4          2.3998    0.0311   -0.0212 C.ar      1 <0>         0.2306
      5 C5          1.2064   -0.6798   -0.0132 C.ar      1 <0>        -0.1836
      6 C6          0.0021   -0.0041    0.0020 C.ar      1 <0>        -0.0668
      7 N1          3.6196   -0.6492   -0.0374 N.pl3     1 <0>        -0.4473
      8 C7          3.7779   -2.1099   -0.0528 C.3       1 <0>         0.1242
      9 C8          5.3017   -2.3314   -0.0670 C.3       1 <0>        -0.1664
     10 C9          5.8824   -0.9355   -0.0582 C.2       1 <0>         0.5258
     11 N2          4.8770   -0.0489   -0.0477 N.am      1 <0>        -0.5205
     12 O1          7.0641   -0.6626   -0.0649 O.2       1 <0>        -0.5170
     13 H1         -0.9598    1.9046    0.0260 H         1 <0>         0.1230
     14 H2          1.1513    3.1692    0.0081 H         1 <0>         0.1253
     15 H3          3.3034    1.9757   -0.0201 H         1 <0>         0.1161
     16 H4          1.2204   -1.7597   -0.0195 H         1 <0>         0.1259
     17 H5         -0.9261   -0.5561    0.0079 H         1 <0>         0.1277
     18 H6          3.3377   -2.5498    0.8421 H         1 <0>         0.0872
     19 H7          3.3235   -2.5325   -0.9488 H         1 <0>         0.0868
     20 H8          5.6153   -2.8803    0.8210 H         1 <0>         0.1186
     21 H9          5.6011   -2.8630   -0.9703 H         1 <0>         0.1187
     22 H10         5.0111    0.9118   -0.0443 H         1 <0>         0.4247
@<TRIPOS>BOND
     1    1    6 ar
     2    1    2 ar
     3    1   13 1
     4    2    3 ar
     5    2   14 1
     6    3    4 ar
     7    3   15 1
     8    4    5 ar
     9    4    7 1
    10    5    6 ar
    11    5   16 1
    12    6   17 1
    13    7   11 1
    14    7    8 1
    15    8    9 1
    16    8   18 1
    17    8   19 1
    18    9   10 1
    19    9   20 1
    20    9   21 1
    21   10   11 am
    22   10   12 2
    23   11   22 1
@<TRIPOS>MOLECULE
ZINC01485058
   32    34     0     0     0
SMALL
USER_CHARGES
2-benzylnaphthalen-1-ol
@<TRIPOS>ATOM
      1 C1          0.7257    8.8511    4.0528 C.ar      1 <0>        -0.1233
      2 C2          1.9723    8.6372    3.4950 C.ar      1 <0>        -0.1218
      3 C3          2.0786    8.1839    2.1935 C.ar      1 <0>        -0.1159
      4 C4          0.9383    7.9450    1.4494 C.ar      1 <0>        -0.0781
      5 C5         -0.3082    8.1644    2.0053 C.ar      1 <0>        -0.1031
      6 C6         -0.4146    8.6127    3.3086 C.ar      1 <0>        -0.1217
      7 C7          1.0542    7.4513    0.0303 C.3       1 <0>        -0.0355
      8 C8          1.0705    5.9444    0.0225 C.ar      1 <0>        -0.1013
      9 C9          2.2892    5.2712    0.0075 C.ar      1 <0>        -0.0960
     10 C10         2.3401    3.9108    0.0001 C.ar      1 <0>        -0.1119
     11 C11         1.1470    3.1677    0.0081 C.ar      1 <0>        -0.0419
     12 C12         1.1626    1.7623    0.0004 C.ar      1 <0>        -0.1089
     13 C13        -0.0126    1.0758    0.0080 C.ar      1 <0>        -0.1122
     14 C14        -1.2345    1.7457    0.0175 C.ar      1 <0>        -0.1187
     15 C15        -1.2876    3.1060    0.0306 C.ar      1 <0>        -0.0982
     16 C16        -0.0956    3.8481    0.0237 C.ar      1 <0>        -0.0727
     17 C17        -0.1108    5.2579    0.0306 C.ar      1 <0>         0.1237
     18 O1         -1.2914    5.9289    0.0456 O.3       1 <0>        -0.4870
     19 H1          0.6426    9.2049    5.0698 H         1 <0>         0.1200
     20 H2          2.8632    8.8238    4.0763 H         1 <0>         0.1207
     21 H3          3.0526    8.0167    1.7577 H         1 <0>         0.1191
     22 H4         -1.1990    7.9820    1.4225 H         1 <0>         0.1273
     23 H5         -1.3886    8.7802    3.7442 H         1 <0>         0.1206
     24 H6          1.9775    7.8270   -0.4108 H         1 <0>         0.0814
     25 H7          0.2030    7.8085   -0.5493 H         1 <0>         0.0824
     26 H8          3.2089    5.8373    0.0014 H         1 <0>         0.1269
     27 H9          3.2938    3.4042   -0.0122 H         1 <0>         0.1303
     28 H10         2.1023    1.2300   -0.0110 H         1 <0>         0.1291
     29 H11         0.0021   -0.0041    0.0020 H         1 <0>         0.1246
     30 H12        -2.1529    1.1774    0.0187 H         1 <0>         0.1243
     31 H13        -2.2417    3.6119    0.0424 H         1 <0>         0.1301
     32 H14        -1.6420    6.1277   -0.8334 H         1 <0>         0.3877
@<TRIPOS>BOND
     1    1    6 ar
     2    1    2 ar
     3    1   19 1
     4    2    3 ar
     5    2   20 1
     6    3    4 ar
     7    3   21 1
     8    4    5 ar
     9    4    7 1
    10    5    6 ar
    11    5   22 1
    12    6   23 1
    13    7    8 1
    14    7   24 1
    15    7   25 1
    16    8   17 ar
    17    8    9 ar
    18    9   10 ar
    19    9   26 1
    20   10   11 ar
    21   10   27 1
    22   11   16 ar
    23   11   12 ar
    24   12   13 ar
    25   12   28 1
    26   13   14 ar
    27   13   29 1
    28   14   15 ar
    29   14   30 1
    30   15   16 ar
    31   15   31 1
    32   16   17 ar
    33   17   18 1
    34   18   32 1
