@<TRIPOS>MOLECULE
ZINC18007687
   29    31     0     0     0
SMALL
USER_CHARGES

@<TRIPOS>ATOM
      1 C1          1.9025    3.4154   -2.8069 C.2       1 <0>        -0.1822
      2 C2          2.1917    3.1284   -1.4938 C.2       1 <0>        -0.1077
      3 C3          3.1899    2.1885   -1.2887 C.2       1 <0>        -0.2282
      4 S1          3.6517    1.7741   -2.9599 S.3       1 <0>         0.2414
      5 C4          2.5907    2.7803   -3.7871 C.2       1 <0>        -0.2625
      6 C5          3.7269    1.6700   -0.0250 C.2       1 <0>         0.5575
      7 O1          3.3541    2.1425    1.0353 O.2       1 <0>        -0.4632
      8 C6          4.7105    0.5848   -0.0376 C.2       1 <0>        -0.4597
      9 C7          6.1796    0.7228    0.0078 C.ar      1 <0>         0.0233
     10 C8          7.0407    1.8152    0.0710 C.ar      1 <0>        -0.1172
     11 C9          8.4047    1.6093    0.1006 C.ar      1 <0>        -0.0332
     12 C10         8.9170    0.3205    0.0675 C.ar      1 <0>        -0.1429
     13 C11         8.0731   -0.7686    0.0049 C.ar      1 <0>        -0.0989
     14 C12         6.6971   -0.5803   -0.0256 C.ar      1 <0>         0.0804
     15 N1          5.6254   -1.4612   -0.0873 N.am      1 <0>        -0.5216
     16 C13         4.4464   -0.7722   -0.0884 C.2       1 <0>         0.4918
     17 O2          3.2157   -1.3282   -0.1348 O.3       1 <0>        -0.6719
     18 C14         5.7333   -2.8038   -0.1334 C.2       1 <0>         0.7415
     19 O3          5.7530   -3.4476    0.8971 O.2       1 <0>        -0.5370
     20 N2          5.8192   -3.4325   -1.3225 N.am      1 <0>        -0.8414
     21 Cl1         9.4832    2.9674    0.1788 Cl        1 <0>        -0.0954
     22 H1          1.1345    4.1334   -3.0541 H         1 <0>         0.1269
     23 H2          1.6745    3.6052   -0.6743 H         1 <0>         0.1420
     24 H3          2.4819    2.8950   -4.8555 H         1 <0>         0.1801
     25 H4          6.6428    2.8189    0.0965 H         1 <0>         0.1221
     26 H5          9.9861    0.1687    0.0907 H         1 <0>         0.1249
     27 H6          8.4820   -1.7679   -0.0200 H         1 <0>         0.1167
     28 H7          5.8035   -2.9186   -2.1450 H         1 <0>         0.4038
     29 H8          5.8969   -4.3988   -1.3557 H         1 <0>         0.4105
@<TRIPOS>BOND
     1    1    5 2
     2    1    2 1
     3    1   22 1
     4    2    3 2
     5    2   23 1
     6    3    4 1
     7    3    6 1
     8    4    5 1
     9    5   24 1
    10    6    7 2
    11    6    8 1
    12    8   16 2
    13    8    9 1
    14    9   14 ar
    15    9   10 ar
    16   10   11 ar
    17   10   25 1
    18   11   12 ar
    19   11   21 1
    20   12   13 ar
    21   12   26 1
    22   13   14 ar
    23   13   27 1
    24   14   15 1
    25   15   16 1
    26   15   18 am
    27   16   17 1
    28   18   19 2
    29   18   20 am
    30   20   28 1
    31   20   29 1
