@<TRIPOS>MOLECULE
ZINC01999261
   42    44     0     0     0
SMALL
USER_CHARGES

@<TRIPOS>ATOM
      1 C1          0.3614    2.2037    0.8714 C.3       1 <0>        -0.1489
      2 C2          0.1478    0.7026    0.6659 C.3       1 <0>        -0.1242
      3 C3          0.9202   -0.0734    1.7346 C.3       1 <0>        -0.1098
      4 C4          0.7066   -1.5744    1.5291 C.3       1 <0>         0.0178
      5 C5          1.4675   -2.3388    2.5817 C.2       1 <0>        -0.4608
      6 C6          2.8046   -2.7038    2.5188 C.2       1 <0>         0.5042
      7 N1          3.1094   -3.3776    3.6591 N.am      1 <0>        -0.3732
      8 N2          1.9545   -3.4388    4.4495 N.pl3     1 <0>        -0.3728
      9 C7          0.9562   -2.7966    3.7875 C.2       1 <0>         0.5037
     10 O1         -0.2971   -2.6371    4.2201 O.3       1 <0>        -0.6529
     11 C8          1.8487   -4.0488    5.7035 C.ar      1 <0>         0.1803
     12 C9          0.8001   -4.9205    5.9672 C.ar      1 <0>        -0.1100
     13 C10         0.6986   -5.5212    7.2067 C.ar      1 <0>        -0.1045
     14 C11         1.6392   -5.2552    8.1848 C.ar      1 <0>        -0.1378
     15 C12         2.6842   -4.3873    7.9256 C.ar      1 <0>        -0.1048
     16 C13         2.7953   -3.7885    6.6861 C.ar      1 <0>        -0.1325
     17 C14         4.3579   -3.9162    3.9861 C.ar      1 <0>         0.1798
     18 C15         4.4551   -5.2291    4.4290 C.ar      1 <0>        -0.1316
     19 C16         5.6896   -5.7579    4.7511 C.ar      1 <0>        -0.1052
     20 C17         6.8280   -4.9817    4.6335 C.ar      1 <0>        -0.1373
     21 C18         6.7346   -3.6741    4.1933 C.ar      1 <0>        -0.1050
     22 C19         5.5040   -3.1413    3.8632 C.ar      1 <0>        -0.1096
     23 O2          3.6441   -2.4400    1.5145 O.2       1 <0>        -0.6522
     24 H1          1.4238    2.4339    0.7908 H         1 <0>         0.0501
     25 H2         -0.1889    2.7565    0.1100 H         1 <0>         0.0449
     26 H3          0.0015    2.4900    1.8596 H         1 <0>         0.0498
     27 H4         -0.9146    0.4724    0.7464 H         1 <0>         0.0555
     28 H5          0.5077    0.4163   -0.3223 H         1 <0>         0.0558
     29 H6          1.9826    0.1568    1.6540 H         1 <0>         0.0538
     30 H7          0.5603    0.2129    2.7228 H         1 <0>         0.0514
     31 H8         -0.3557   -1.8046    1.6096 H         1 <0>         0.0492
     32 H9          1.0665   -1.8607    0.5409 H         1 <0>         0.0461
     33 H10         0.0648   -5.1282    5.2040 H         1 <0>         0.1296
     34 H11        -0.1166   -6.1992    7.4124 H         1 <0>         0.1246
     35 H12         1.5573   -5.7259    9.1533 H         1 <0>         0.1202
     36 H13         3.4170   -4.1814    8.6918 H         1 <0>         0.1220
     37 H14         3.6143   -3.1146    6.4827 H         1 <0>         0.1189
     38 H15         3.5663   -5.8356    4.5217 H         1 <0>         0.1191
     39 H16         5.7659   -6.7786    5.0955 H         1 <0>         0.1221
     40 H17         7.7922   -5.3975    4.8864 H         1 <0>         0.1203
     41 H18         7.6256   -3.0704    4.1029 H         1 <0>         0.1245
     42 H19         5.4322   -2.1215    3.5149 H         1 <0>         0.1294
@<TRIPOS>BOND
     1    1    2 1
     2    1   24 1
     3    1   25 1
     4    1   26 1
     5    2    3 1
     6    2   27 1
     7    2   28 1
     8    3    4 1
     9    3   29 1
    10    3   30 1
    11    4   31 1
    12    4   32 1
    13    4    5 1
    14    5    6 1
    15    5    9 2
    16    6    7 am
    17    6   23 2
    18    7    8 1
    19    7   17 1
    20    8    9 1
    21    8   11 1
    22    9   10 1
    23   11   16 ar
    24   11   12 ar
    25   12   13 ar
    26   12   33 1
    27   13   14 ar
    28   13   34 1
    29   14   15 ar
    30   14   35 1
    31   15   16 ar
    32   15   36 1
    33   16   37 1
    34   17   22 ar
    35   17   18 ar
    36   18   19 ar
    37   18   38 1
    38   19   20 ar
    39   19   39 1
    40   20   21 ar
    41   20   40 1
    42   21   22 ar
    43   21   41 1
    44   22   42 1
@<TRIPOS>MOLECULE
ZINC00001281
   29    30     0     0     0
SMALL
USER_CHARGES

@<TRIPOS>ATOM
      1 C1         -0.1806    1.0357    0.2000 C.ar      1 <0>        -0.1222
      2 C2          0.9245    1.8481    0.0217 C.ar      1 <0>        -0.1361
      3 C3          2.1862    1.2928   -0.0570 C.ar      1 <0>        -0.1180
      4 C4          2.3450   -0.0840    0.0433 C.ar      1 <0>         0.1573
      5 C5          1.2329   -0.8970    0.2224 C.ar      1 <0>        -0.0156
      6 C6         -0.0262   -0.3347    0.3002 C.ar      1 <0>        -0.1119
      7 C7          1.4001   -2.3907    0.3312 C.3       1 <0>        -0.1565
      8 C8          1.7182   -2.7580    1.7577 C.2       1 <0>         0.5052
      9 O1          1.8014   -1.8875    2.6073 O.co2     1 <0>        -0.6883
     10 O2          1.8923   -3.9257    2.0622 O.co2     1 <0>        -0.7010
     11 N1          3.6199   -0.6493   -0.0363 N.pl3     1 <0>        -0.6799
     12 C9          3.9705   -1.4310   -1.1417 C.ar      1 <0>         0.2371
     13 C10         3.3529   -1.2194   -2.3686 C.ar      1 <0>        -0.0923
     14 C11         3.7019   -1.9940   -3.4588 C.ar      1 <0>        -0.0712
     15 C12         4.6640   -2.9789   -3.3298 C.ar      1 <0>        -0.1540
     16 C13         5.2803   -3.1928   -2.1105 C.ar      1 <0>        -0.0674
     17 C14         4.9413   -2.4177   -1.0174 C.ar      1 <0>        -0.0897
     18 Cl1         5.7217   -2.6815    0.5107 Cl        1 <0>        -0.0512
     19 Cl2         2.1442    0.0160   -2.5315 Cl        1 <0>        -0.0473
     20 H1         -1.1659    1.4731    0.2657 H         1 <0>         0.1132
     21 H2          0.8003    2.9181   -0.0565 H         1 <0>         0.1137
     22 H3          3.0486    1.9277   -0.1966 H         1 <0>         0.1147
     23 H4         -0.8913   -0.9662    0.4394 H         1 <0>         0.1149
     24 H5          0.4765   -2.8828    0.0266 H         1 <0>         0.0630
     25 H6          2.2146   -2.7133   -0.3173 H         1 <0>         0.0663
     26 H7          4.2621   -0.4997    0.6751 H         1 <0>         0.4125
     27 H8          3.2224   -1.8301   -4.4125 H         1 <0>         0.1341
     28 H9          4.9344   -3.5828   -4.1833 H         1 <0>         0.1345
     29 H10         6.0307   -3.9634   -2.0133 H         1 <0>         0.1361
@<TRIPOS>BOND
     1    1    6 ar
     2    1    2 ar
     3    1   20 1
     4    2    3 ar
     5    2   21 1
     6    3    4 ar
     7    3   22 1
     8    4    5 ar
     9    4   11 1
    10    5    6 ar
    11    5    7 1
    12    6   23 1
    13    7    8 1
    14    7   24 1
    15    7   25 1
    16    8    9 2
    17    8   10 1
    18   11   12 1
    19   11   26 1
    20   12   17 ar
    21   12   13 ar
    22   13   14 ar
    23   13   19 1
    24   14   15 ar
    25   14   27 1
    26   15   16 ar
    27   15   28 1
    28   16   17 ar
    29   16   29 1
    30   17   18 1
@<TRIPOS>MOLECULE
ZINC02570895
   40    42     0     0     0
SMALL
USER_CHARGES

@<TRIPOS>ATOM
      1 C1          0.0405    1.5033    0.0105 C.3       1 <0>        -0.1224
      2 C2          0.0481   -0.0036    0.0022 C.ar      1 <0>        -0.0617
      3 C3         -0.4654   -0.6891   -1.0843 C.ar      1 <0>        -0.1180
      4 C4         -0.4609   -2.0687   -1.0981 C.ar      1 <0>        -0.0762
      5 C5          0.0630   -2.7726   -0.0133 C.ar      1 <0>        -0.0606
      6 C6          0.5793   -2.0754    1.0794 C.ar      1 <0>        -0.0985
      7 C7          0.5738   -0.6957    1.0787 C.ar      1 <0>        -0.1165
      8 C8          0.0704   -4.2518   -0.0214 C.2       1 <0>         0.1497
      9 C9          0.0778   -5.0559   -1.1264 C.2       1 <0>        -0.2047
     10 C10         0.0841   -6.3814   -0.6911 C.2       1 <0>        -0.0034
     11 N1          0.0806   -6.3920    0.6183 N.2       1 <0>        -0.2184
     12 N2          0.0772   -5.0674    1.0740 N.pl3     1 <0>        -0.3181
     13 C11         0.0780   -4.6538    2.4124 C.ar      1 <0>         0.1993
     14 C12        -0.7877   -3.6523    2.8316 C.ar      1 <0>        -0.1310
     15 C13        -0.7845   -3.2467    4.1518 C.ar      1 <0>        -0.0008
     16 C14         0.0799   -3.8365    5.0557 C.ar      1 <0>        -0.6729
     17 C15         0.9432   -4.8341    4.6414 C.ar      1 <0>         0.0013
     18 C16         0.9405   -5.2485    3.3238 C.ar      1 <0>        -0.1237
     19 S1          0.0817   -3.3155    6.7389 S.o2      1 <0>         2.7035
     20 O1          1.3615   -3.6412    7.2635 O.2       1 <0>        -0.9570
     21 O2         -0.4336   -1.9913    6.7547 O.2       1 <0>        -0.9571
     22 N3         -1.0144   -4.2595    7.5449 N.pl3     1 <0>        -1.2487
     23 C17         0.0927   -7.5984   -1.5799 C.3       1 <0>         0.5581
     24 F1          1.4144   -7.9678   -1.8518 F         1 <0>        -0.1637
     25 F2         -0.5625   -8.6523   -0.9339 F         1 <0>        -0.1639
     26 F3         -0.5656   -7.3049   -2.7789 F         1 <0>        -0.1610
     27 H1          0.9639    1.8738   -0.4347 H         1 <0>         0.0767
     28 H2         -0.8113    1.8655   -0.5652 H         1 <0>         0.0714
     29 H3         -0.0366    1.8607    1.0374 H         1 <0>         0.0715
     30 H4         -0.8709   -0.1431   -1.9232 H         1 <0>         0.1331
     31 H5         -0.8624   -2.6027   -1.9467 H         1 <0>         0.1336
     32 H6          0.9862   -2.6145    1.9221 H         1 <0>         0.1246
     33 H7          0.9772   -0.1548    1.9220 H         1 <0>         0.1315
     34 H8          0.0784   -4.7241   -2.1542 H         1 <0>         0.1732
     35 H9         -1.4626   -3.1908    2.1259 H         1 <0>         0.1459
     36 H10        -1.4576   -2.4679    4.4785 H         1 <0>         0.1580
     37 H11         1.6174   -5.2926    5.3496 H         1 <0>         0.1579
     38 H12         1.6117   -6.0309    3.0018 H         1 <0>         0.1479
     39 H13        -1.5085   -4.9443    7.0675 H         1 <0>         0.4179
     40 H14        -1.1624   -4.1277    8.4945 H         1 <0>         0.4235
@<TRIPOS>BOND
     1    1    2 1
     2    1   27 1
     3    1   28 1
     4    1   29 1
     5    2    7 ar
     6    2    3 ar
     7    3    4 ar
     8    3   30 1
     9    4    5 ar
    10    4   31 1
    11    5    6 ar
    12    5    8 1
    13    6    7 ar
    14    6   32 1
    15    7   33 1
    16    8   12 1
    17    8    9 2
    18    9   10 1
    19    9   34 1
    20   10   11 2
    21   10   23 1
    22   11   12 1
    23   12   13 1
    24   13   18 ar
    25   13   14 ar
    26   14   15 ar
    27   14   35 1
    28   15   16 ar
    29   15   36 1
    30   16   17 ar
    31   16   19 1
    32   17   18 ar
    33   17   37 1
    34   18   38 1
    35   19   20 2
    36   19   21 2
    37   19   22 1
    38   22   39 1
    39   22   40 1
    40   23   24 1
    41   23   25 1
    42   23   26 1
@<TRIPOS>MOLECULE
ZINC00007455
   36    38     0     0     0
SMALL
USER_CHARGES

@<TRIPOS>ATOM
      1 C1         -0.0225    1.8097    0.0120 C.3       1 <0>        -0.6496
      2 S1          0.0021   -0.0041    0.0020 S.o2      1 <0>         2.4981
      3 O1          0.8352   -0.4880    1.0465 O.2       1 <0>        -0.9340
      4 O2         -1.3147   -0.5105   -0.1678 O.2       1 <0>        -0.9341
      5 C2          0.8454   -0.4373   -1.4831 C.ar      1 <0>        -0.6507
      6 C3          0.1298   -0.6119   -2.6551 C.ar      1 <0>        -0.0202
      7 C4          0.7818   -0.9504   -3.8215 C.ar      1 <0>        -0.1172
      8 C5          2.1716   -1.1177   -3.8185 C.ar      1 <0>         0.0092
      9 C6          2.8876   -0.9392   -2.6290 C.ar      1 <0>        -0.1081
     10 C7          2.2206   -0.5956   -1.4726 C.ar      1 <0>        -0.0190
     11 C8          2.8747   -1.4788   -5.0567 C.2       1 <0>        -0.0568
     12 C9          3.7864   -0.7210   -5.7283 C.2       1 <0>        -0.1387
     13 C10         4.2326   -1.4690   -6.9092 C.2       1 <0>         0.5050
     14 O3          5.0462   -1.0718   -7.7204 O.2       1 <0>        -0.4360
     15 O4          3.6087   -2.6593   -6.9612 O.3       1 <0>        -0.3106
     16 C11         2.7349   -2.7668   -5.8340 C.3       1 <0>         0.0732
     17 C12         4.2486    0.6295   -5.3334 C.ar      1 <0>        -0.0365
     18 C13         3.3544    1.7001   -5.3220 C.ar      1 <0>        -0.0956
     19 C14         3.7910    2.9559   -4.9532 C.ar      1 <0>        -0.1186
     20 C15         5.1127    3.1546   -4.5957 C.ar      1 <0>        -0.1084
     21 C16         6.0044    2.0969   -4.6056 C.ar      1 <0>        -0.1162
     22 C17         5.5784    0.8350   -4.9660 C.ar      1 <0>        -0.0916
     23 H1          1.0001    2.1870    0.0043 H         1 <0>         0.1324
     24 H2         -0.5497    2.1708   -0.8711 H         1 <0>         0.1323
     25 H3         -0.5327    2.1613    0.9088 H         1 <0>         0.1353
     26 H4         -0.9425   -0.4828   -2.6556 H         1 <0>         0.1495
     27 H5          0.2220   -1.0866   -4.7350 H         1 <0>         0.1396
     28 H6          3.9600   -1.0668   -2.6182 H         1 <0>         0.1374
     29 H7          2.7720   -0.4536   -0.5549 H         1 <0>         0.1489
     30 H8          3.0268   -3.6125   -5.2113 H         1 <0>         0.1274
     31 H9          1.7060   -2.8891   -6.1723 H         1 <0>         0.1261
     32 H10         2.3226    1.5463   -5.6015 H         1 <0>         0.1218
     33 H11         3.0997    3.7856   -4.9439 H         1 <0>         0.1270
     34 H12         5.4498    4.1395   -4.3082 H         1 <0>         0.1262
     35 H13         7.0351    2.2584   -4.3262 H         1 <0>         0.1285
     36 H14         6.2742    0.0090   -4.9684 H         1 <0>         0.1241
@<TRIPOS>BOND
     1    1    2 1
     2    1   23 1
     3    1   24 1
     4    1   25 1
     5    2    3 2
     6    2    4 2
     7    2    5 1
     8    5   10 ar
     9    5    6 ar
    10    6    7 ar
    11    6   26 1
    12    7    8 ar
    13    7   27 1
    14    8    9 ar
    15    8   11 1
    16    9   10 ar
    17    9   28 1
    18   10   29 1
    19   11   16 1
    20   11   12 2
    21   12   13 1
    22   12   17 1
    23   13   14 2
    24   13   15 1
    25   15   16 1
    26   16   30 1
    27   16   31 1
    28   17   22 ar
    29   17   18 ar
    30   18   19 ar
    31   18   32 1
    32   19   20 ar
    33   19   33 1
    34   20   21 ar
    35   20   34 1
    36   21   22 ar
    37   21   35 1
    38   22   36 1
@<TRIPOS>MOLECULE
ZINC36941786
   30    31     0     0     0
SMALL
USER_CHARGES

@<TRIPOS>ATOM
      1 C1          0.5067    1.8206    0.2731 C.3       1 <0>        -0.6487
      2 S1          0.0508    0.0859    0.0024 S.o2      1 <0>         2.4972
      3 O1          0.6280   -0.7347    1.0087 O.2       1 <0>        -0.9319
      4 O2         -1.3322   -0.0139   -0.3087 O.2       1 <0>        -0.9320
      5 C2          0.8800   -0.3738   -1.4828 C.ar      1 <0>        -0.6337
      6 C3          0.2534   -0.1978   -2.7041 C.ar      1 <0>        -0.0344
      7 C4          0.8964   -0.5558   -3.8706 C.ar      1 <0>        -0.1044
      8 C5          2.1831   -1.0967   -3.8172 C.ar      1 <0>        -0.1090
      9 C6          2.8096   -1.2710   -2.5811 C.ar      1 <0>        -0.0805
     10 C7          2.1569   -0.9038   -1.4229 C.ar      1 <0>        -0.0325
     11 C8          2.8780   -1.4830   -5.0626 C.2       1 <0>         0.4352
     12 O3          3.9369   -2.0775   -5.0084 O.2       1 <0>        -0.4263
     13 C9          2.2861   -1.1468   -6.3733 C.ar      1 <0>        -0.1444
     14 C10         1.5625    0.0375   -6.5333 C.ar      1 <0>        -0.0812
     15 C11         1.0124    0.3454   -7.7595 C.ar      1 <0>        -0.0979
     16 C12         1.1760   -0.5164   -8.8314 C.ar      1 <0>        -0.0653
     17 C13         1.8919   -1.6924   -8.6793 C.ar      1 <0>        -0.0960
     18 C14         2.4523   -2.0091   -7.4601 C.ar      1 <0>        -0.0574
     19 Br1         0.4181   -0.0860  -10.5095 Br        1 <0>        -0.0353
     20 H1          1.5890    1.9003    0.3744 H         1 <0>         0.1330
     21 H2          0.1761    2.4198   -0.5753 H         1 <0>         0.1330
     22 H3          0.0289    2.1842    1.1829 H         1 <0>         0.1362
     23 H4         -0.7415    0.2205   -2.7439 H         1 <0>         0.1517
     24 H5          0.4060   -0.4186   -4.8230 H         1 <0>         0.1500
     25 H6          3.8043   -1.6890   -2.5326 H         1 <0>         0.1468
     26 H7          2.6419   -1.0340   -0.4667 H         1 <0>         0.1519
     27 H8          1.4339    0.7102   -5.6982 H         1 <0>         0.1460
     28 H9          0.4525    1.2605   -7.8844 H         1 <0>         0.1436
     29 H10         2.0152   -2.3605   -9.5188 H         1 <0>         0.1433
     30 H11         3.0147   -2.9238   -7.3441 H         1 <0>         0.1430
@<TRIPOS>BOND
     1    1    2 1
     2    1   20 1
     3    1   21 1
     4    1   22 1
     5    2    3 2
     6    2    4 2
     7    2    5 1
     8    5   10 ar
     9    5    6 ar
    10    6    7 ar
    11    6   23 1
    12    7    8 ar
    13    7   24 1
    14    8    9 ar
    15    8   11 1
    16    9   10 ar
    17    9   25 1
    18   10   26 1
    19   11   12 2
    20   11   13 1
    21   13   18 ar
    22   13   14 ar
    23   14   15 ar
    24   14   27 1
    25   15   16 ar
    26   15   28 1
    27   16   17 ar
    28   16   19 1
    29   17   18 ar
    30   17   29 1
    31   18   30 1
@<TRIPOS>MOLECULE
ZINC34220290
   30    31     0     0     0
SMALL
USER_CHARGES

@<TRIPOS>ATOM
      1 C1          0.3749    1.6442    0.3190 C.3       1 <0>        -0.6487
      2 S1         -0.0454   -0.0913   -0.0005 S.o2      1 <0>         2.4974
      3 O1          0.5333   -0.9260    0.9934 O.2       1 <0>        -0.9324
      4 O2         -1.4220   -0.2084   -0.3329 O.2       1 <0>        -0.9321
      5 C2          0.8119   -0.4990   -1.4849 C.ar      1 <0>        -0.6343
      6 C3          0.1986   -0.3041   -2.7100 C.ar      1 <0>        -0.0326
      7 C4          0.8638   -0.6211   -3.8760 C.ar      1 <0>        -0.0809
      8 C5          2.1595   -1.1393   -3.8181 C.ar      1 <0>        -0.1084
      9 C6          2.7725   -1.3330   -2.5782 C.ar      1 <0>        -0.1049
     10 C7          2.0974   -1.0072   -1.4204 C.ar      1 <0>        -0.0344
     11 C8          2.8782   -1.4817   -5.0630 C.2       1 <0>         0.4376
     12 O3          2.4004   -1.1872   -6.1413 O.2       1 <0>        -0.4294
     13 C9          4.1765   -2.1812   -4.9972 C.ar      1 <0>        -0.1726
     14 C10         4.4183   -3.1178   -3.9883 C.ar      1 <0>        -0.0569
     15 C11         5.6320   -3.7677   -3.9319 C.ar      1 <0>        -0.1605
     16 C12         6.6129   -3.4936   -4.8733 C.ar      1 <0>         0.1313
     17 C13         6.3786   -2.5652   -5.8767 C.ar      1 <0>        -0.1600
     18 C14         5.1664   -1.9137   -5.9468 C.ar      1 <0>        -0.0335
     19 F1          7.8014   -4.1332   -4.8125 F         1 <0>        -0.1303
     20 H1          1.4541    1.7408    0.4371 H         1 <0>         0.1329
     21 H2          0.0447    2.2581   -0.5189 H         1 <0>         0.1330
     22 H3         -0.1216    1.9763    1.2307 H         1 <0>         0.1361
     23 H4         -0.8033    0.0967   -2.7533 H         1 <0>         0.1516
     24 H5          0.3838   -0.4692   -4.8314 H         1 <0>         0.1467
     25 H6          3.7741   -1.7336   -2.5262 H         1 <0>         0.1497
     26 H7          2.5717   -1.1529   -0.4611 H         1 <0>         0.1515
     27 H8          3.6554   -3.3314   -3.2543 H         1 <0>         0.1473
     28 H9          5.8200   -4.4916   -3.1527 H         1 <0>         0.1468
     29 H10         7.1462   -2.3556   -6.6069 H         1 <0>         0.1461
     30 H11         4.9834   -1.1942   -6.7312 H         1 <0>         0.1439
@<TRIPOS>BOND
     1    1    2 1
     2    1   20 1
     3    1   21 1
     4    1   22 1
     5    2    3 2
     6    2    4 2
     7    2    5 1
     8    5   10 ar
     9    5    6 ar
    10    6    7 ar
    11    6   23 1
    12    7    8 ar
    13    7   24 1
    14    8    9 ar
    15    8   11 1
    16    9   10 ar
    17    9   25 1
    18   10   26 1
    19   11   12 2
    20   11   13 1
    21   13   18 ar
    22   13   14 ar
    23   14   15 ar
    24   14   27 1
    25   15   16 ar
    26   15   28 1
    27   16   17 ar
    28   16   19 1
    29   17   18 ar
    30   17   29 1
    31   18   30 1
@<TRIPOS>MOLECULE
ZINC35120168
   26    27     0     0     0
SMALL
USER_CHARGES

@<TRIPOS>ATOM
      1 C1         -0.0225    1.8097    0.0120 C.3       1 <0>        -0.6503
      2 S1          0.0021   -0.0041    0.0020 S.o2      1 <0>         2.5038
      3 O1          0.8352   -0.4880    1.0465 O.2       1 <0>        -0.9358
      4 O2         -1.3147   -0.5105   -0.1678 O.2       1 <0>        -0.9357
      5 C2          0.8454   -0.4373   -1.4831 C.ar      1 <0>        -0.6804
      6 C3          0.1330   -0.6123   -2.6553 C.ar      1 <0>         0.0081
      7 C4          0.7913   -0.9519   -3.8210 C.ar      1 <0>        -0.1648
      8 C5          2.1697   -1.1172   -3.8153 C.ar      1 <0>         0.2019
      9 C6          2.8823   -0.9404   -2.6370 C.ar      1 <0>        -0.1648
     10 C7          2.2190   -0.5961   -1.4754 C.ar      1 <0>         0.0082
     11 N1          2.8407   -1.4624   -4.9969 N.pl3     1 <0>        -0.4066
     12 C8          2.2571   -1.6582   -6.2159 C.2       1 <0>        -0.0163
     13 C9          3.2247   -1.9750   -7.1002 C.2       1 <0>        -0.1817
     14 C10         4.4502   -1.9753   -6.4041 C.2       1 <0>        -0.1817
     15 C11         4.1873   -1.6529   -5.1214 C.2       1 <0>        -0.0163
     16 H1          1.0001    2.1870    0.0043 H         1 <0>         0.1318
     17 H2         -0.5497    2.1708   -0.8711 H         1 <0>         0.1318
     18 H3         -0.5327    2.1613    0.9088 H         1 <0>         0.1345
     19 H4         -0.9393   -0.4836   -2.6591 H         1 <0>         0.1519
     20 H5          0.2343   -1.0892   -4.7361 H         1 <0>         0.1413
     21 H6          3.9547   -1.0686   -2.6294 H         1 <0>         0.1413
     22 H7          2.7733   -0.4547   -0.5594 H         1 <0>         0.1520
     23 H8          1.2026   -1.5745   -6.4340 H         1 <0>         0.1684
     24 H9          3.0858   -2.1898   -8.1494 H         1 <0>         0.1455
     25 H10         5.4224   -2.1903   -6.8225 H         1 <0>         0.1455
     26 H11         4.9155   -1.5631   -4.3289 H         1 <0>         0.1684
@<TRIPOS>BOND
     1    1    2 1
     2    1   16 1
     3    1   17 1
     4    1   18 1
     5    2    3 2
     6    2    4 2
     7    2    5 1
     8    5   10 ar
     9    5    6 ar
    10    6    7 ar
    11    6   19 1
    12    7    8 ar
    13    7   20 1
    14    8    9 ar
    15    8   11 1
    16    9   10 ar
    17    9   21 1
    18   10   22 1
    19   11   15 1
    20   11   12 1
    21   12   13 2
    22   12   23 1
    23   13   14 1
    24   13   24 1
    25   14   15 2
    26   14   25 1
    27   15   26 1
@<TRIPOS>MOLECULE
ZINC37361506
   34    36     0     0     0
SMALL
USER_CHARGES

@<TRIPOS>ATOM
      1 C1          0.6161    0.4541    0.9487 C.3       1 <0>        -0.6494
      2 S1         -0.0442   -1.0451    0.1696 S.o2      1 <0>         2.4982
      3 O1          0.3538   -2.1944    0.9043 O.2       1 <0>        -0.9339
      4 O2         -1.4051   -0.8508   -0.1904 O.2       1 <0>        -0.9329
      5 C2          0.8127   -1.1732   -1.3647 C.ar      1 <0>        -0.6427
      6 C3          0.2958   -0.5654   -2.4952 C.ar      1 <0>        -0.0270
      7 C4          0.9616   -0.6618   -3.6994 C.ar      1 <0>        -0.0892
      8 C5          2.1596   -1.3744   -3.7759 C.ar      1 <0>        -0.0910
      9 C6          2.6757   -1.9852   -2.6315 C.ar      1 <0>        -0.1133
     10 C7          2.0026   -1.8762   -1.4323 C.ar      1 <0>        -0.0305
     11 C8          2.8786   -1.4823   -5.0637 C.2       1 <0>         0.4605
     12 O3          2.2548   -1.5153   -6.1080 O.2       1 <0>        -0.4445
     13 C9          4.3445   -1.5497   -5.0822 C.2       1 <0>        -0.2578
     14 C10         5.1841   -1.3983   -4.0150 C.2       1 <0>         0.1259
     15 N1          6.4687   -1.5270   -4.4218 N.pl3     1 <0>        -0.5731
     16 H1          7.2424   -1.4586   -3.8408 H         1 <0>         0.4232
     17 C11         6.5230   -1.7693   -5.7794 C.ar      1 <0>         0.0805
     18 C12         5.2023   -1.8006   -6.2553 C.ar      1 <0>        -0.0645
     19 C13         4.9515   -2.0341   -7.6046 C.ar      1 <0>        -0.0707
     20 C14         6.0053   -2.2373   -8.4692 C.ar      1 <0>        -0.1329
     21 C15         7.3103   -2.2098   -8.0004 C.ar      1 <0>        -0.0979
     22 C16         7.5730   -1.9728   -6.6682 C.ar      1 <0>        -0.1229
     23 H2          1.6907    0.3444    1.0950 H         1 <0>         0.1321
     24 H3          0.4228    1.3129    0.3059 H         1 <0>         0.1327
     25 H4          0.1317    0.6058    1.9132 H         1 <0>         0.1351
     26 H5         -0.6313   -0.0147   -2.4347 H         1 <0>         0.1503
     27 H6          0.5569   -0.1873   -4.5812 H         1 <0>         0.1437
     28 H7          3.6020   -2.5379   -2.6840 H         1 <0>         0.1422
     29 H8          2.4029   -2.3445   -0.5453 H         1 <0>         0.1497
     30 H9          4.8701   -1.2051   -2.9999 H         1 <0>         0.1854
     31 H10         3.9361   -2.0563   -7.9719 H         1 <0>         0.1323
     32 H11         5.8141   -2.4190   -9.5165 H         1 <0>         0.1282
     33 H12         8.1286   -2.3706   -8.6865 H         1 <0>         0.1300
     34 H13         8.5928   -1.9552   -6.3133 H         1 <0>         0.1242
@<TRIPOS>BOND
     1    1    2 1
     2    1   23 1
     3    1   24 1
     4    1   25 1
     5    2    3 2
     6    2    4 2
     7    2    5 1
     8    5   10 ar
     9    5    6 ar
    10    6    7 ar
    11    6   26 1
    12    7    8 ar
    13    7   27 1
    14    8    9 ar
    15    8   11 1
    16    9   10 ar
    17    9   28 1
    18   10   29 1
    19   11   12 2
    20   11   13 1
    21   13   18 1
    22   13   14 2
    23   14   15 1
    24   14   30 1
    25   15   16 1
    26   15   17 1
    27   17   22 ar
    28   17   18 ar
    29   18   19 ar
    30   19   20 ar
    31   19   31 1
    32   20   21 ar
    33   20   32 1
    34   21   22 ar
    35   21   33 1
    36   22   34 1
@<TRIPOS>MOLECULE
ZINC00006787
   29    30     0     0     0
SMALL
USER_CHARGES

@<TRIPOS>ATOM
      1 C1         -0.0169    1.3936    0.0097 C.ar      1 <0>        -0.0880
      2 C2          1.1682    2.0965    0.0022 C.ar      1 <0>        -0.1444
      3 C3          2.3804    1.4185   -0.0131 C.ar      1 <0>         0.1088
      4 C4          2.4043    0.0297   -0.0212 C.ar      1 <0>        -0.1437
      5 C5          1.2244   -0.6820   -0.0142 C.ar      1 <0>        -0.0943
      6 C6          0.0021   -0.0041    0.0020 C.ar      1 <0>        -0.0701
      7 C7         -1.2624   -0.7604    0.0105 C.2       1 <0>        -0.0946
      8 C8         -1.2417   -2.1029    0.0031 C.2       1 <0>        -0.1125
      9 C9         -2.5067   -2.8595    0.0116 C.ar      1 <0>        -0.0208
     10 C10        -3.7282   -2.1821    0.0216 C.ar      1 <0>        -0.1505
     11 C11        -4.9138   -2.8974    0.0296 C.ar      1 <0>         0.1270
     12 C12        -4.8898   -4.2848    0.0277 C.ar      1 <0>        -0.1731
     13 C13        -3.6788   -4.9623    0.0183 C.ar      1 <0>         0.1263
     14 C14        -2.4878   -4.2561    0.0039 C.ar      1 <0>        -0.1438
     15 O1         -3.6617   -6.3213    0.0174 O.3       1 <0>        -0.4960
     16 O2         -6.1029   -2.2395    0.0398 O.3       1 <0>        -0.4960
     17 O3          3.5463    2.1158   -0.0204 O.3       1 <0>        -0.4996
     18 H1         -0.9588    1.9217    0.0260 H         1 <0>         0.1307
     19 H2          1.1546    3.1764    0.0077 H         1 <0>         0.1317
     20 H3          3.3492   -0.4932   -0.0334 H         1 <0>         0.1314
     21 H4          1.2440   -1.7618   -0.0209 H         1 <0>         0.1307
     22 H5         -2.2059   -0.2349    0.0227 H         1 <0>         0.1259
     23 H6         -0.2983   -2.6284   -0.0091 H         1 <0>         0.1276
     24 H7         -3.7479   -1.1023    0.0234 H         1 <0>         0.1351
     25 H8         -5.8166   -4.8392    0.0340 H         1 <0>         0.1362
     26 H9         -1.5459   -4.7843   -0.0083 H         1 <0>         0.1350
     27 H10        -3.6634   -6.7141   -0.8663 H         1 <0>         0.3942
     28 H11        -6.4539   -2.0477   -0.8406 H         1 <0>         0.3942
     29 H12         3.8923    2.3129    0.8608 H         1 <0>         0.3928
@<TRIPOS>BOND
     1    1    6 ar
     2    1    2 ar
     3    1   18 1
     4    2    3 ar
     5    2   19 1
     6    3    4 ar
     7    3   17 1
     8    4    5 ar
     9    4   20 1
    10    5    6 ar
    11    5   21 1
    12    6    7 1
    13    7    8 2
    14    7   22 1
    15    8    9 1
    16    8   23 1
    17    9   14 ar
    18    9   10 ar
    19   10   11 ar
    20   10   24 1
    21   11   12 ar
    22   11   16 1
    23   12   13 ar
    24   12   25 1
    25   13   14 ar
    26   13   15 1
    27   14   26 1
    28   15   27 1
    29   16   28 1
    30   17   29 1
@<TRIPOS>MOLECULE
ZINC00001536
   38    39     0     0     0
SMALL
USER_CHARGES

@<TRIPOS>ATOM
      1 C1         -0.0157    1.3058    0.0092 C.2       1 <0>        -0.1898
      2 C2          0.0021   -0.0041    0.0020 C.2       1 <0>        -0.1505
      3 C3         -1.2926   -0.7753    0.0102 C.3       1 <0>        -0.0556
      4 C4         -1.3183   -1.7262   -1.1586 C.ar      1 <0>        -0.0841
      5 C5         -1.8344   -1.3114   -2.3737 C.ar      1 <0>        -0.0961
      6 C6         -1.8626   -2.1763   -3.4511 C.ar      1 <0>        -0.1399
      7 C7         -1.3727   -3.4657   -3.3192 C.ar      1 <0>         0.1141
      8 C8         -0.8503   -3.8876   -2.0930 C.ar      1 <0>        -0.0690
      9 C9         -0.8219   -3.0060   -1.0148 C.ar      1 <0>        -0.0887
     10 C10        -0.3237   -5.2659   -1.9423 C.ar      1 <0>        -0.0550
     11 C11         0.9356   -5.4751   -1.3818 C.ar      1 <0>        -0.0938
     12 C12         1.4225   -6.7577   -1.2430 C.ar      1 <0>        -0.1452
     13 C13         0.6602   -7.8402   -1.6612 C.ar      1 <0>         0.1148
     14 C14        -0.5937   -7.6352   -2.2200 C.ar      1 <0>        -0.1056
     15 C15        -1.0890   -6.3550   -2.3554 C.ar      1 <0>        -0.0690
     16 C16        -1.4176   -8.8129   -2.6731 C.3       1 <0>        -0.0468
     17 C17        -0.9328   -9.2756   -4.0229 C.2       1 <0>        -0.1469
     18 C18        -0.5744  -10.5234   -4.1978 C.2       1 <0>        -0.1832
     19 O1          1.1430   -9.1030   -1.5236 O.3       1 <0>        -0.4926
     20 O2         -1.4004   -4.3171   -4.3776 O.3       1 <0>        -0.4925
     21 H1          0.9122    1.8585    0.0033 H         1 <0>         0.0989
     22 H2         -0.9582    1.8330    0.0166 H         1 <0>         0.0972
     23 H3          0.9446   -0.5313   -0.0098 H         1 <0>         0.1092
     24 H4         -1.3737   -1.3393    0.9394 H         1 <0>         0.0838
     25 H5         -2.1295   -0.0812   -0.0676 H         1 <0>         0.0788
     26 H6         -2.2171   -0.3071   -2.4804 H         1 <0>         0.1269
     27 H7         -2.2673   -1.8471   -4.3968 H         1 <0>         0.1312
     28 H8         -0.4159   -3.3249   -0.0662 H         1 <0>         0.1280
     29 H9          1.5293   -4.6334   -1.0570 H         1 <0>         0.1265
     30 H10         2.3980   -6.9204   -0.8089 H         1 <0>         0.1303
     31 H11        -2.0669   -6.1964   -2.7855 H         1 <0>         0.1308
     32 H12        -1.3172   -9.6251   -1.9531 H         1 <0>         0.0759
     33 H13        -2.4645   -8.5180   -2.7445 H         1 <0>         0.0805
     34 H14        -0.8808   -8.5784   -4.8461 H         1 <0>         0.1071
     35 H15        -0.6264  -11.2206   -3.3746 H         1 <0>         0.0957
     36 H16        -0.2270  -10.8550   -5.1652 H         1 <0>         0.0964
     37 H17         0.9169   -9.5209   -0.6813 H         1 <0>         0.3880
     38 H18        -0.6071   -4.2843   -4.9296 H         1 <0>         0.3900
@<TRIPOS>BOND
     1    1    2 2
     2    1   21 1
     3    1   22 1
     4    2    3 1
     5    2   23 1
     6    3    4 1
     7    3   24 1
     8    3   25 1
     9    4    9 ar
    10    4    5 ar
    11    5    6 ar
    12    5   26 1
    13    6    7 ar
    14    6   27 1
    15    7    8 ar
    16    7   20 1
    17    8    9 ar
    18    8   10 1
    19    9   28 1
    20   10   15 ar
    21   10   11 ar
    22   11   12 ar
    23   11   29 1
    24   12   13 ar
    25   12   30 1
    26   13   14 ar
    27   13   19 1
    28   14   15 ar
    29   14   16 1
    30   15   31 1
    31   16   17 1
    32   16   32 1
    33   16   33 1
    34   17   18 2
    35   17   34 1
    36   18   35 1
    37   18   36 1
    38   19   37 1
    39   20   38 1
@<TRIPOS>MOLECULE
ZINC38141759
   32    32     0     0     0
SMALL
USER_CHARGES

@<TRIPOS>ATOM
      1 C1         -0.0187    1.5258    0.0104 C.3       1 <0>        -0.1161
      2 C2          0.0021   -0.0041    0.0020 C.3       1 <0>        -0.1322
      3 H1          0.5123   -0.3556   -0.8948 H         1 <0>         0.0665
      4 C3          0.7309   -0.5033    1.2229 C.ar      1 <0>        -0.0395
      5 C4          0.2630   -0.1872    2.4847 C.ar      1 <0>        -0.1030
      6 C5          0.9315   -0.6452    3.6046 C.ar      1 <0>        -0.1208
      7 C6          2.0678   -1.4195    3.4627 C.ar      1 <0>        -0.1043
      8 C7          2.5353   -1.7363    2.2010 C.ar      1 <0>        -0.1200
      9 C8          1.8643   -1.2820    1.0811 C.ar      1 <0>        -0.1243
     10 C9          2.7973   -1.9179    4.6836 C.3       1 <0>        -0.0680
     11 C10         2.2317   -3.2785    5.0956 C.3       1 <0>        -0.0934
     12 C11         2.5261   -4.3059    4.0007 C.3       1 <0>        -0.1501
     13 C12         2.8845   -3.7270    6.4047 C.3       1 <0>        -0.1454
     14 C13        -1.4117   -0.5257    0.0127 C.2       1 <0>         0.5043
     15 O1         -1.7102   -1.4919   -0.6684 O.co2     1 <0>        -0.6985
     16 O2         -2.2571    0.0185    0.7025 O.co2     1 <0>        -0.6908
     17 H2          1.0039    1.9031    0.0027 H         1 <0>         0.0363
     18 H3         -0.5459    1.8868   -0.8726 H         1 <0>         0.0472
     19 H4         -0.5289    1.8773    0.9072 H         1 <0>         0.0598
     20 H5         -0.6248    0.4177    2.5955 H         1 <0>         0.1300
     21 H6          0.5663   -0.3977    4.5903 H         1 <0>         0.1130
     22 H7          3.4233   -2.3410    2.0902 H         1 <0>         0.1123
     23 H8          2.2274   -1.5326    0.0953 H         1 <0>         0.1149
     24 H9          3.8586   -2.0192    4.4567 H         1 <0>         0.0652
     25 H10         2.6665   -1.2077    5.5001 H         1 <0>         0.0657
     26 H11         1.1540   -3.1964    5.2365 H         1 <0>         0.0710
     27 H12         2.1232   -5.2752    4.2942 H         1 <0>         0.0494
     28 H13         2.0610   -3.9864    3.0682 H         1 <0>         0.0643
     29 H14         3.6038   -4.3880    3.8598 H         1 <0>         0.0501
     30 H15         2.6748   -2.9951    7.1847 H         1 <0>         0.0522
     31 H16         2.4816   -4.6963    6.6982 H         1 <0>         0.0523
     32 H17         3.9623   -3.8091    6.2637 H         1 <0>         0.0520
@<TRIPOS>BOND
     1    1    2 1
     2    1   17 1
     3    1   18 1
     4    1   19 1
     5    2    3 1
     6    2    4 1
     7    2   14 1
     8    4    9 ar
     9    4    5 ar
    10    5    6 ar
    11    5   20 1
    12    6    7 ar
    13    6   21 1
    14    7    8 ar
    15    7   10 1
    16    8    9 ar
    17    8   22 1
    18    9   23 1
    19   10   11 1
    20   10   24 1
    21   10   25 1
    22   11   12 1
    23   11   13 1
    24   11   26 1
    25   12   27 1
    26   12   28 1
    27   12   29 1
    28   13   30 1
    29   13   31 1
    30   13   32 1
    31   14   15 2
    32   14   16 1
@<TRIPOS>MOLECULE
ZINC02795867
   41    43     0     0     0
SMALL
USER_CHARGES
5-methyl-2-(3,4,5-trimethoxyphenyl)-isoindoline-1,3-dione
@<TRIPOS>ATOM
      1 C1          1.9729   10.7588   -3.6830 C.3       1 <0>        -0.1233
      2 C2          1.7052    9.3624   -3.1836 C.ar      1 <0>        -0.0552
      3 C3          2.1332    8.2755   -3.9224 C.ar      1 <0>        -0.0951
      4 C4          1.8938    6.9848   -3.4770 C.ar      1 <0>        -0.0325
      5 C5          1.2214    6.7841   -2.2822 C.ar      1 <0>        -0.1470
      6 C6          0.7849    7.8926   -1.5286 C.ar      1 <0>        -0.1334
      7 C7          1.0310    9.1770   -1.9866 C.ar      1 <0>        -0.0409
      8 C8          0.1169    7.3324   -0.3351 C.2       1 <0>         0.5780
      9 O1         -0.3937    7.9763    0.5592 O.2       1 <0>        -0.4458
     10 N1          0.1697    5.9900   -0.4047 N.am      1 <0>        -0.5194
     11 C9          0.8088    5.5880   -1.5180 C.2       1 <0>         0.5782
     12 O2          1.0110    4.4351   -1.8421 O.2       1 <0>        -0.4466
     13 C10        -0.3660    5.1234    0.5599 C.ar      1 <0>         0.2023
     14 C11        -1.0035    5.6405    1.6790 C.ar      1 <0>        -0.2565
     15 C12        -1.5339    4.7852    2.6321 C.ar      1 <0>         0.1710
     16 C13        -1.4310    3.4093    2.4645 C.ar      1 <0>         0.0231
     17 C14        -0.7875    2.8927    1.3463 C.ar      1 <0>         0.1711
     18 C15        -0.2586    3.7497    0.3940 C.ar      1 <0>        -0.2563
     19 O3         -0.6816    1.5467    1.1837 O.3       1 <0>        -0.2961
     20 C16        -0.0127    1.0858    0.0080 C.3       1 <0>         0.0228
     21 O4         -1.9563    2.5683    3.3975 O.3       1 <0>        -0.3096
     22 C17        -1.1010    2.1778    4.4737 C.3       1 <0>         0.0339
     23 O5         -2.1593    5.2921    3.7281 O.3       1 <0>        -0.2961
     24 C18        -2.2331    6.7154    3.8327 C.3       1 <0>         0.0228
     25 H1          2.9322   11.1047   -3.2980 H         1 <0>         0.0830
     26 H2          1.9983   10.7563   -4.7727 H         1 <0>         0.0775
     27 H3          1.1819   11.4255   -3.3395 H         1 <0>         0.0765
     28 H4          2.6574    8.4328   -4.8534 H         1 <0>         0.1464
     29 H5          2.2302    6.1392   -4.0586 H         1 <0>         0.1468
     30 H6          0.6992   10.0300   -1.4133 H         1 <0>         0.1458
     31 H7         -1.0866    6.7096    1.8071 H         1 <0>         0.1693
     32 H8          0.2377    3.3484   -0.4773 H         1 <0>         0.1695
     33 H9          0.0021   -0.0041    0.0020 H         1 <0>         0.1060
     34 H10         1.0099    1.4631    0.0003 H         1 <0>         0.0594
     35 H11        -0.5399    1.4469   -0.8751 H         1 <0>         0.0606
     36 H12        -0.2268    1.6633    4.0746 H         1 <0>         0.0448
     37 H13        -0.7820    3.0630    5.0238 H         1 <0>         0.0449
     38 H14        -1.6419    1.5091    5.1433 H         1 <0>         0.0941
     39 H15        -1.2257    7.1311    3.8519 H         1 <0>         0.0594
     40 H16        -2.7748    7.1151    2.9754 H         1 <0>         0.0606
     41 H17        -2.7552    6.9857    4.7505 H         1 <0>         0.1060
@<TRIPOS>BOND
     1    1    2 1
     2    1   25 1
     3    1   26 1
     4    1   27 1
     5    2    7 ar
     6    2    3 ar
     7    3    4 ar
     8    3   28 1
     9    4    5 ar
    10    4   29 1
    11    5   11 1
    12    5    6 ar
    13    6    7 ar
    14    6    8 1
    15    7   30 1
    16    8    9 2
    17    8   10 am
    18   10   11 am
    19   10   13 1
    20   11   12 2
    21   13   18 ar
    22   13   14 ar
    23   14   15 ar
    24   14   31 1
    25   15   16 ar
    26   15   23 1
    27   16   17 ar
    28   16   21 1
    29   17   18 ar
    30   17   19 1
    31   18   32 1
    32   19   20 1
    33   20   33 1
    34   20   34 1
    35   20   35 1
    36   21   22 1
    37   22   36 1
    38   22   37 1
    39   22   38 1
    40   23   24 1
    41   24   39 1
    42   24   40 1
    43   24   41 1
@<TRIPOS>MOLECULE
ZINC27015737
   38    39     0     0     0
SMALL
USER_CHARGES

@<TRIPOS>ATOM
      1 C1          0.1003    1.3400   -0.0196 C.3       1 <0>         0.0239
      2 O1          0.0949   -0.0881   -0.0700 O.3       1 <0>        -0.3122
      3 C2         -1.1178   -0.7016   -0.0523 C.ar      1 <0>         0.1239
      4 C3         -2.2782    0.0577    0.0065 C.ar      1 <0>        -0.1768
      5 C4         -3.5100   -0.5639    0.0249 C.ar      1 <0>        -0.0970
      6 C5         -3.5885   -1.9514   -0.0159 C.ar      1 <0>         0.1081
      7 C6         -2.4255   -2.7108   -0.0753 C.ar      1 <0>        -0.0902
      8 C7         -1.1950   -2.0866   -0.0989 C.ar      1 <0>        -0.1206
      9 N1         -4.8333   -2.5811    0.0031 N.pl3     1 <0>        -0.4711
     10 N2         -4.9055   -3.8685   -0.0348 N.2       1 <0>        -0.0813
     11 C8         -6.0789   -4.4684    0.0741 C.2       1 <0>        -0.1370
     12 C9         -6.1518   -5.9359    0.1331 C.2       1 <0>         0.4830
     13 O2         -7.2334   -6.4926    0.1123 O.2       1 <0>        -0.4357
     14 C10        -4.9112   -6.7345    0.2177 C.ar      1 <0>        -0.1541
     15 C11        -3.6817   -6.1013    0.4126 C.ar      1 <0>        -0.0644
     16 C12        -2.5278   -6.8518    0.4912 C.ar      1 <0>        -0.1263
     17 C13        -2.5862   -8.2312    0.3767 C.ar      1 <0>        -0.0011
     18 C14        -3.8027   -8.8650    0.1833 C.ar      1 <0>        -0.1242
     19 C15        -4.9642   -8.1259    0.1088 C.ar      1 <0>        -0.0419
     20 Cl1        -1.1288   -9.1692    0.4756 Cl        1 <0>        -0.0579
     21 C16        -7.3041   -3.6725    0.1359 C.2       1 <0>         0.3559
     22 O3         -7.9419   -3.4609   -0.8749 O.2       1 <0>        -0.3321
     23 C17        -7.7747   -3.1150    1.4545 C.3       1 <0>         0.4242
     24 F1         -9.0154   -2.4921    1.2813 F         1 <0>        -0.1538
     25 F2         -7.9004   -4.1546    2.3822 F         1 <0>        -0.1499
     26 F3         -6.8453   -2.1807    1.9242 F         1 <0>        -0.1671
     27 H1          1.1288    1.7004   -0.0402 H         1 <0>         0.1042
     28 H2         -0.4407    1.7359   -0.8790 H         1 <0>         0.0582
     29 H3         -0.3830    1.6729    0.8989 H         1 <0>         0.0584
     30 H4         -2.2169    1.1355    0.0383 H         1 <0>         0.1407
     31 H5         -4.4128    0.0271    0.0715 H         1 <0>         0.1349
     32 H6         -2.4851   -3.7887   -0.1068 H         1 <0>         0.1463
     33 H7         -0.2915   -2.6762   -0.1495 H         1 <0>         0.1445
     34 H8         -5.6445   -2.0509    0.0449 H         1 <0>         0.3910
     35 H9         -3.6348   -5.0259    0.5013 H         1 <0>         0.1652
     36 H10        -1.5764   -6.3634    0.6419 H         1 <0>         0.1424
     37 H11        -3.8419   -9.9407    0.0948 H         1 <0>         0.1434
     38 H12        -5.9126   -8.6215   -0.0376 H         1 <0>         0.1466
@<TRIPOS>BOND
     1    1    2 1
     2    1   27 1
     3    1   28 1
     4    1   29 1
     5    2    3 1
     6    3    8 ar
     7    3    4 ar
     8    4    5 ar
     9    4   30 1
    10    5    6 ar
    11    5   31 1
    12    6    7 ar
    13    6    9 1
    14    7    8 ar
    15    7   32 1
    16    8   33 1
    17    9   10 1
    18    9   34 1
    19   10   11 2
    20   11   12 1
    21   11   21 1
    22   12   13 2
    23   12   14 1
    24   14   19 ar
    25   14   15 ar
    26   15   16 ar
    27   15   35 1
    28   16   17 ar
    29   16   36 1
    30   17   18 ar
    31   17   20 1
    32   18   19 ar
    33   18   37 1
    34   19   38 1
    35   21   22 2
    36   21   23 1
    37   23   24 1
    38   23   25 1
    39   23   26 1
@<TRIPOS>MOLECULE
ZINC00000053
   20    20     0     0     0
SMALL
USER_CHARGES

@<TRIPOS>ATOM
      1 C1         -1.4238    1.4221    1.2577 C.3       1 <0>        -0.1370
      2 C2         -1.3441   -0.0813    1.1904 C.2       1 <0>         0.4790
      3 O1         -1.4532   -0.7378    2.1988 O.2       1 <0>        -0.5137
      4 O2         -1.1519   -0.6914    0.0093 O.3       1 <0>        -0.2785
      5 C3         -0.9822   -2.0375    0.0080 C.ar      1 <0>         0.1140
      6 C4          0.2935   -2.5790    0.0577 C.ar      1 <0>        -0.1438
      7 C5          0.4647   -3.9491    0.0557 C.ar      1 <0>        -0.1168
      8 C6         -0.6330   -4.7933    0.0047 C.ar      1 <0>        -0.1375
      9 C7         -1.9078   -4.2739   -0.0447 C.ar      1 <0>        -0.0755
     10 C8         -2.0966   -2.8882   -0.0379 C.ar      1 <0>        -0.1363
     11 C9         -3.4564   -2.3257   -0.0844 C.2       1 <0>         0.5228
     12 O3         -4.4256   -3.0711   -0.1243 O.co2     1 <0>        -0.6853
     13 O4         -3.6170   -1.1130   -0.0830 O.co2     1 <0>        -0.6764
     14 H1         -1.5815    1.7317    2.2908 H         1 <0>         0.0951
     15 H2         -0.4932    1.8522    0.8875 H         1 <0>         0.0914
     16 H3         -2.2544    1.7698    0.6434 H         1 <0>         0.1039
     17 H4          1.1543   -1.9280    0.0976 H         1 <0>         0.1207
     18 H5          1.4605   -4.3654    0.0938 H         1 <0>         0.1210
     19 H6         -0.4882   -5.8635    0.0032 H         1 <0>         0.1200
     20 H7         -2.7604   -4.9357   -0.0844 H         1 <0>         0.1328
@<TRIPOS>BOND
     1    1    2 1
     2    1   14 1
     3    1   15 1
     4    1   16 1
     5    2    3 2
     6    2    4 1
     7    4    5 1
     8    5   10 ar
     9    5    6 ar
    10    6    7 ar
    11    6   17 1
    12    7    8 ar
    13    7   18 1
    14    8    9 ar
    15    8   19 1
    16    9   10 ar
    17    9   20 1
    18   10   11 1
    19   11   12 2
    20   11   13 1
@<TRIPOS>MOLECULE
ZINC29038894
   34    35     0     0     0
SMALL
USER_CHARGES
1-(4-methylsulfonylphenyl)-3-phenyl-urea
@<TRIPOS>ATOM
      1 C1         -6.3663    4.1590   -4.1709 C.3       1 <0>        -0.6540
      2 S1         -6.4491    4.4252   -2.3785 S.o2      1 <0>         2.5026
      3 O1         -7.3497    3.4987   -1.7871 O.2       1 <0>        -0.9393
      4 O2         -6.5479    5.8140   -2.0940 O.2       1 <0>        -0.9380
      5 C2         -4.8611    3.9550   -1.7771 C.ar      1 <0>        -0.6810
      6 C3         -3.8501    4.8945   -1.6905 C.ar      1 <0>        -0.0007
      7 C4         -2.6045    4.5293   -1.2187 C.ar      1 <0>        -0.1466
      8 C5         -2.3678    3.2169   -0.8313 C.ar      1 <0>         0.2281
      9 C6         -3.3835    2.2745   -0.9249 C.ar      1 <0>        -0.1705
     10 C7         -4.6285    2.6473   -1.3922 C.ar      1 <0>        -0.0011
     11 N1         -1.1067    2.8435   -0.3533 N.am      1 <0>        -0.6974
     12 C8         -0.3647    3.7228    0.3486 C.2       1 <0>         0.7067
     13 O3         -0.8277    4.8066    0.6478 O.2       1 <0>        -0.5530
     14 N2          0.8906    3.4009    0.7189 N.am      1 <0>        -0.6920
     15 C9          1.6223    4.2674    1.5386 C.ar      1 <0>         0.1645
     16 C10         3.0006    4.3605    1.3976 C.ar      1 <0>        -0.1474
     17 C11         3.7194    5.2203    2.2050 C.ar      1 <0>        -0.0997
     18 C12         3.0691    5.9804    3.1597 C.ar      1 <0>        -0.1358
     19 C13         1.6973    5.8857    3.3064 C.ar      1 <0>        -0.0987
     20 C14         0.9723    5.0318    2.4986 C.ar      1 <0>        -0.1234
     21 H1         -5.6668    4.8813   -4.6169 H         1 <0>         0.1329
     22 H2         -7.3658    4.2981   -4.6088 H         1 <0>         0.1341
     23 H3         -6.0161    3.1362   -4.3739 H         1 <0>         0.1321
     24 H4         -4.0349    5.9150   -1.9919 H         1 <0>         0.1453
     25 H5         -1.8156    5.2637   -1.1506 H         1 <0>         0.1451
     26 H6         -3.2013    1.2521   -0.6283 H         1 <0>         0.1366
     27 H7         -5.4202    1.9160   -1.4606 H         1 <0>         0.1465
     28 H8         -0.7211    1.8324   -0.5504 H         1 <0>         0.4359
     29 H9          1.3400    2.4570    0.3768 H         1 <0>         0.4317
     30 H10         3.5096    3.7643    0.6547 H         1 <0>         0.1251
     31 H11         4.7909    5.2962    2.0931 H         1 <0>         0.1269
     32 H12         3.6338    6.6491    3.7924 H         1 <0>         0.1241
     33 H13         1.1924    6.4804    4.0533 H         1 <0>         0.1261
     34 H14        -0.0991    4.9583    2.6137 H         1 <0>         0.1342
@<TRIPOS>BOND
     1    1    2 1
     2    1   21 1
     3    1   22 1
     4    1   23 1
     5    2    3 2
     6    2    4 2
     7    2    5 1
     8    5   10 ar
     9    5    6 ar
    10    6    7 ar
    11    6   24 1
    12    7    8 ar
    13    7   25 1
    14    8    9 ar
    15    8   11 1
    16    9   10 ar
    17    9   26 1
    18   10   27 1
    19   11   12 am
    20   11   28 1
    21   12   13 2
    22   12   14 am
    23   14   15 1
    24   14   29 1
    25   15   20 ar
    26   15   16 ar
    27   16   17 ar
    28   16   30 1
    29   17   18 ar
    30   17   31 1
    31   18   19 ar
    32   18   32 1
    33   19   20 ar
    34   19   33 1
    35   20   34 1
@<TRIPOS>MOLECULE
ZINC29038900
   34    35     0     0     0
SMALL
USER_CHARGES
1-(4-fluorophenyl)-3-(4-methylsulfonylphenyl)urea
@<TRIPOS>ATOM
      1 C1          1.2050   -0.6327    0.9067 C.3       1 <0>        -0.6539
      2 S1          0.6323    1.0363    0.4859 S.o2      1 <0>         2.5025
      3 O1          1.7340    1.9319    0.4289 O.2       1 <0>        -0.9378
      4 O2         -0.3091    0.9772   -0.5769 O.2       1 <0>        -0.9391
      5 C2         -0.3015    1.5607    1.8850 C.ar      1 <0>        -0.6803
      6 C3         -1.6598    1.3078    1.9421 C.ar      1 <0>        -0.0007
      7 C4         -2.3937    1.7134    3.0396 C.ar      1 <0>        -0.1696
      8 C5         -1.7681    2.3851    4.0816 C.ar      1 <0>         0.2268
      9 C6         -0.4049    2.6423    4.0188 C.ar      1 <0>        -0.1462
     10 C7          0.3244    2.2295    2.9210 C.ar      1 <0>        -0.0011
     11 N1         -2.5099    2.8025    5.1924 N.am      1 <0>        -0.6964
     12 C8         -2.1758    3.9373    5.8381 C.2       1 <0>         0.7074
     13 O3         -1.2906    4.6473    5.4013 O.2       1 <0>        -0.5530
     14 N2         -2.8229    4.2852    6.9680 N.am      1 <0>        -0.6911
     15 C9         -2.5523    5.5158    7.5794 C.ar      1 <0>         0.1565
     16 C10        -2.6216    5.6359    8.9609 C.ar      1 <0>        -0.1175
     17 C11        -2.3483    6.8489    9.5622 C.ar      1 <0>        -0.1321
     18 C12        -2.0174    7.9479    8.7875 C.ar      1 <0>         0.0828
     19 C13        -1.9533    7.8316    7.4091 C.ar      1 <0>        -0.1309
     20 C14        -2.2199    6.6189    6.8043 C.ar      1 <0>        -0.0944
     21 F1         -1.7563    9.1350    9.3772 F         1 <0>        -0.1385
     22 H1          0.3441   -1.3162    0.9478 H         1 <0>         0.1328
     23 H2          1.7045   -0.6128    1.8865 H         1 <0>         0.1322
     24 H3          1.9136   -0.9811    0.1409 H         1 <0>         0.1341
     25 H4         -2.1465    0.7889    1.1295 H         1 <0>         0.1467
     26 H5         -3.4537    1.5116    3.0856 H         1 <0>         0.1369
     27 H6          0.0846    3.1642    4.8278 H         1 <0>         0.1453
     28 H7          1.3847    2.4288    2.8717 H         1 <0>         0.1455
     29 H8         -3.3657    2.2044    5.5385 H         1 <0>         0.4366
     30 H9         -3.5636    3.6026    7.4100 H         1 <0>         0.4342
     31 H10        -2.8843    4.7802    9.5651 H         1 <0>         0.1367
     32 H11        -2.3970    6.9415   10.6371 H         1 <0>         0.1408
     33 H12        -1.6944    8.6897    6.8067 H         1 <0>         0.1399
     34 H13        -2.1695    6.5285    5.7293 H         1 <0>         0.1448
@<TRIPOS>BOND
     1    1    2 1
     2    1   22 1
     3    1   23 1
     4    1   24 1
     5    2    3 2
     6    2    4 2
     7    2    5 1
     8    5   10 ar
     9    5    6 ar
    10    6    7 ar
    11    6   25 1
    12    7    8 ar
    13    7   26 1
    14    8    9 ar
    15    8   11 1
    16    9   10 ar
    17    9   27 1
    18   10   28 1
    19   11   12 am
    20   11   29 1
    21   12   13 2
    22   12   14 am
    23   14   15 1
    24   14   30 1
    25   15   20 ar
    26   15   16 ar
    27   16   17 ar
    28   16   31 1
    29   17   18 ar
    30   17   32 1
    31   18   19 ar
    32   18   21 1
    33   19   20 ar
    34   19   33 1
    35   20   34 1
@<TRIPOS>MOLECULE
ZINC29038909
   38    39     0     0     0
SMALL
USER_CHARGES
1-(4-methoxyphenyl)-3-(4-methylsulfonylphenyl)urea
@<TRIPOS>ATOM
      1 C1          0.1852    4.1512   -0.0448 C.3       1 <0>         0.0232
      2 O1          1.1310    3.4237   -0.8312 O.3       1 <0>        -0.3168
      3 C2          1.1577    2.0736   -0.6718 C.ar      1 <0>         0.1139
      4 C3          2.0517    1.3066   -1.4043 C.ar      1 <0>        -0.1302
      5 C4          2.0797   -0.0646   -1.2425 C.ar      1 <0>        -0.0810
      6 C5          1.2128   -0.6754   -0.3465 C.ar      1 <0>         0.1276
      7 C6          0.3182    0.0928    0.3863 C.ar      1 <0>        -0.1047
      8 C7          0.2912    1.4639    0.2236 C.ar      1 <0>        -0.1886
      9 N1          1.2410   -2.0668   -0.1816 N.am      1 <0>        -0.6894
     10 C8          2.4045   -2.7362   -0.3022 C.2       1 <0>         0.7064
     11 O2          3.4438   -2.1253   -0.4607 O.2       1 <0>        -0.5546
     12 N2          2.4160   -4.0828   -0.2471 N.am      1 <0>        -0.6976
     13 C9          3.6330   -4.7733   -0.2626 C.ar      1 <0>         0.2287
     14 C10         3.7174   -6.0211   -0.8662 C.ar      1 <0>        -0.1708
     15 C11         4.9213   -6.6978   -0.8844 C.ar      1 <0>        -0.0010
     16 C12         6.0391   -6.1391   -0.2924 C.ar      1 <0>        -0.6811
     17 C13         5.9571   -4.8991    0.3141 C.ar      1 <0>        -0.0010
     18 C14         4.7575   -4.2148    0.3307 C.ar      1 <0>        -0.1466
     19 S1          7.5714   -7.0088   -0.3114 S.o2      1 <0>         2.5026
     20 O3          7.4970   -7.8495   -1.4546 O.2       1 <0>        -0.9394
     21 O4          8.5642   -5.9963   -0.2203 O.2       1 <0>        -0.9380
     22 C15         7.5584   -8.0092    1.2018 C.3       1 <0>        -0.6538
     23 H1          0.2694    5.2246   -0.2702 H         1 <0>         0.1026
     24 H2          0.3900    3.9836    1.0229 H         1 <0>         0.0565
     25 H3         -0.8318    3.8054   -0.2818 H         1 <0>         0.0565
     26 H4          2.7292    1.7823   -2.0980 H         1 <0>         0.1353
     27 H5          2.7756   -0.6617   -1.8132 H         1 <0>         0.1419
     28 H6         -0.3568   -0.3818    1.0832 H         1 <0>         0.1287
     29 H7         -0.4044    2.0617    0.7939 H         1 <0>         0.1328
     30 H8          0.3135   -2.6126    0.0463 H         1 <0>         0.4308
     31 H9          1.4687   -4.6390   -0.1899 H         1 <0>         0.4356
     32 H10         2.8435   -6.4601   -1.3245 H         1 <0>         0.1365
     33 H11         4.9887   -7.6662   -1.3576 H         1 <0>         0.1462
     34 H12         6.8321   -4.4651    0.7750 H         1 <0>         0.1452
     35 H13         4.6942   -3.2462    0.8042 H         1 <0>         0.1453
     36 H14         8.4910   -8.5890    1.2660 H         1 <0>         0.1338
     37 H15         6.7000   -8.6967    1.1795 H         1 <0>         0.1322
     38 H16         7.4763   -7.3485    2.0774 H         1 <0>         0.1324
@<TRIPOS>BOND
     1    1    2 1
     2    1   23 1
     3    1   24 1
     4    1   25 1
     5    2    3 1
     6    3    8 ar
     7    3    4 ar
     8    4    5 ar
     9    4   26 1
    10    5    6 ar
    11    5   27 1
    12    6    7 ar
    13    6    9 1
    14    7    8 ar
    15    7   28 1
    16    8   29 1
    17    9   10 am
    18    9   30 1
    19   10   11 2
    20   10   12 am
    21   12   13 1
    22   12   31 1
    23   13   18 ar
    24   13   14 ar
    25   14   15 ar
    26   14   32 1
    27   15   16 ar
    28   15   33 1
    29   16   17 ar
    30   16   19 1
    31   17   18 ar
    32   17   34 1
    33   18   35 1
    34   19   20 2
    35   19   21 2
    36   19   22 1
    37   22   36 1
    38   22   37 1
    39   22   38 1
@<TRIPOS>MOLECULE
ZINC00603710
   43    46     0     0     0
SMALL
USER_CHARGES

@<TRIPOS>ATOM
      1 C1         -0.0165    1.3620    0.0095 C.ar      1 <0>        -0.1378
      2 C2          1.1697    2.0834    0.0021 C.ar      1 <0>        -0.0954
      3 C3          2.3856    1.4362   -0.0134 C.ar      1 <0>        -0.1252
      4 C4          2.4281    0.0456   -0.0212 C.ar      1 <0>         0.0983
      5 C5          1.2234   -0.6807   -0.0132 C.ar      1 <0>        -0.0911
      6 C6          0.0021   -0.0041    0.0020 C.ar      1 <0>        -0.0754
      7 C7          1.6036   -2.0953   -0.0245 C.2       1 <0>        -0.2050
      8 C8          2.9451   -2.1410   -0.0380 C.2       1 <0>         0.0897
      9 N1          3.4551   -0.8713   -0.0363 N.pl3     1 <0>        -0.5879
     10 H1          4.3995   -0.6501   -0.0442 H         1 <0>         0.4204
     11 C9          0.6664   -3.2754   -0.0210 C.3       1 <0>         0.1961
     12 H2         -0.2147   -3.0635    0.5846 H         1 <0>         0.1084
     13 C10         0.2598   -3.6517   -1.4603 C.3       1 <0>        -0.1116
     14 C11         0.7788   -5.0623   -1.6247 C.2       1 <0>        -0.0140
     15 N2          1.3513   -5.4366   -0.5548 N.2       1 <0>        -0.1603
     16 N3          1.3535   -4.4831    0.4662 N.pl3     1 <0>        -0.4575
     17 C12         1.9131   -4.6449    1.7349 C.ar      1 <0>         0.2800
     18 C13         1.8425   -3.6139    2.6639 C.ar      1 <0>        -0.1847
     19 C14         2.3971   -3.7775    3.9179 C.ar      1 <0>         0.0220
     20 C15         3.0228   -4.9654    4.2494 C.ar      1 <0>        -0.7134
     21 C16         3.0950   -5.9937    3.3274 C.ar      1 <0>         0.0192
     22 C17         2.5371   -5.8395    2.0737 C.ar      1 <0>        -0.1796
     23 S1          3.7302   -5.1692    5.8503 S.o2      1 <0>         2.7036
     24 O1          4.7339   -6.1675    5.7267 O.2       1 <0>        -0.9652
     25 O2          4.0093   -3.8648    6.3400 O.2       1 <0>        -0.9660
     26 N4          2.5529   -5.8004    6.8291 N.pl3     1 <0>        -1.2508
     27 C18         0.6373   -5.8984   -2.8705 C.3       1 <0>         0.5567
     28 F1          1.2340   -7.1469   -2.6645 F         1 <0>        -0.1607
     29 F2         -0.7195   -6.0727   -3.1636 F         1 <0>        -0.1612
     30 F3          1.2661   -5.2518   -3.9399 F         1 <0>        -0.1615
     31 H3         -0.9613    1.8849    0.0259 H         1 <0>         0.1252
     32 H4          1.1388    3.1630    0.0081 H         1 <0>         0.1279
     33 H5          3.3028    2.0064   -0.0198 H         1 <0>         0.1224
     34 H6         -0.9246   -0.5587    0.0082 H         1 <0>         0.1219
     35 H7          3.5346   -3.0459   -0.0490 H         1 <0>         0.1633
     36 H8         -0.8243   -3.6273   -1.5706 H         1 <0>         0.1165
     37 H9          0.7338   -2.9832   -2.1791 H         1 <0>         0.1169
     38 H10         1.3547   -2.6856    2.4055 H         1 <0>         0.1399
     39 H11         2.3426   -2.9766    4.6404 H         1 <0>         0.1471
     40 H12         3.5846   -6.9199    3.5896 H         1 <0>         0.1478
     41 H13         2.5899   -6.6445    1.3556 H         1 <0>         0.1435
     42 H14         1.6702   -5.9826    6.4705 H         1 <0>         0.4167
     43 H15         2.7460   -5.9878    7.7610 H         1 <0>         0.4208
@<TRIPOS>BOND
     1    1    6 ar
     2    1    2 ar
     3    1   31 1
     4    2    3 ar
     5    2   32 1
     6    3    4 ar
     7    3   33 1
     8    4    9 1
     9    4    5 ar
    10    5    6 ar
    11    5    7 1
    12    6   34 1
    13    7    8 2
    14    7   11 1
    15    8    9 1
    16    8   35 1
    17    9   10 1
    18   11   12 1
    19   11   16 1
    20   11   13 1
    21   13   14 1
    22   13   36 1
    23   13   37 1
    24   14   15 2
    25   14   27 1
    26   15   16 1
    27   16   17 1
    28   17   22 ar
    29   17   18 ar
    30   18   19 ar
    31   18   38 1
    32   19   20 ar
    33   19   39 1
    34   20   21 ar
    35   20   23 1
    36   21   22 ar
    37   21   40 1
    38   22   41 1
    39   23   24 2
    40   23   25 2
    41   23   26 1
    42   26   42 1
    43   26   43 1
    44   27   28 1
    45   27   29 1
    46   27   30 1
@<TRIPOS>MOLECULE
ZINC03973408
   43    46     0     0     0
SMALL
USER_CHARGES

@<TRIPOS>ATOM
      1 C1         -0.0165    1.3620    0.0095 C.ar      1 <0>        -0.1377
      2 C2          1.1697    2.0834    0.0021 C.ar      1 <0>        -0.0948
      3 C3          2.3856    1.4362   -0.0134 C.ar      1 <0>        -0.1260
      4 C4          2.4281    0.0456   -0.0212 C.ar      1 <0>         0.0983
      5 C5          1.2234   -0.6807   -0.0132 C.ar      1 <0>        -0.0913
      6 C6          0.0021   -0.0041    0.0020 C.ar      1 <0>        -0.0747
      7 C7          1.6036   -2.0953   -0.0245 C.2       1 <0>        -0.2029
      8 C8          2.9451   -2.1410   -0.0380 C.2       1 <0>         0.0873
      9 N1          3.4551   -0.8713   -0.0363 N.pl3     1 <0>        -0.5886
     10 H1          4.3995   -0.6501   -0.0442 H         1 <0>         0.4197
     11 C9          0.6664   -3.2754   -0.0210 C.3       1 <0>         0.1952
     12 H2         -0.1845   -3.0911   -0.6768 H         1 <0>         0.1088
     13 C10         0.1911   -3.5887    1.4122 C.3       1 <0>        -0.1114
     14 C11         0.7001   -4.9903    1.6628 C.2       1 <0>        -0.0132
     15 N2          1.3227   -5.4105    0.6390 N.2       1 <0>        -0.1601
     16 N3          1.3747   -4.5025   -0.4216 N.pl3     1 <0>        -0.4577
     17 C12         1.9942   -4.7191   -1.6537 C.ar      1 <0>         0.2793
     18 C13         1.9789   -3.7255   -2.6252 C.ar      1 <0>        -0.1857
     19 C14         2.5926   -3.9433   -3.8429 C.ar      1 <0>         0.0222
     20 C15         3.2215   -5.1487   -4.0964 C.ar      1 <0>        -0.7133
     21 C16         3.2387   -6.1398   -3.1320 C.ar      1 <0>         0.0195
     22 C17         2.6324   -5.9267   -1.9097 C.ar      1 <0>        -0.1796
     23 S1          4.0023   -5.4225   -5.6520 S.o2      1 <0>         2.7033
     24 O1          4.0471   -6.8301   -5.8417 O.2       1 <0>        -0.9643
     25 O2          3.3755   -4.5482   -6.5805 O.2       1 <0>        -0.9651
     26 N4          5.5717   -4.9140   -5.5084 N.pl3     1 <0>        -1.2512
     27 C18         0.4992   -5.7709    2.9362 C.3       1 <0>         0.5567
     28 F1          1.1035   -7.0267    2.8136 F         1 <0>        -0.1606
     29 F2          1.0776   -5.0773    4.0046 F         1 <0>        -0.1616
     30 F3         -0.8701   -5.9334    3.1724 F         1 <0>        -0.1609
     31 H3         -0.9613    1.8849    0.0259 H         1 <0>         0.1255
     32 H4          1.1388    3.1630    0.0081 H         1 <0>         0.1279
     33 H5          3.3028    2.0064   -0.0198 H         1 <0>         0.1222
     34 H6         -0.9246   -0.5587    0.0082 H         1 <0>         0.1223
     35 H7          3.5346   -3.0459   -0.0490 H         1 <0>         0.1635
     36 H8          0.6309   -2.8890    2.1229 H         1 <0>         0.1171
     37 H9         -0.8970   -3.5607    1.4694 H         1 <0>         0.1166
     38 H10         1.4873   -2.7843   -2.4282 H         1 <0>         0.1402
     39 H11         2.5811   -3.1716   -4.5983 H         1 <0>         0.1472
     40 H12         3.7305   -7.0799   -3.3335 H         1 <0>         0.1479
     41 H13         2.6501   -6.6994   -1.1554 H         1 <0>         0.1436
     42 H14         5.8881   -4.5486   -4.6674 H         1 <0>         0.4157
     43 H15         6.1746   -4.9816   -6.2653 H         1 <0>         0.4208
@<TRIPOS>BOND
     1    1    6 ar
     2    1    2 ar
     3    1   31 1
     4    2    3 ar
     5    2   32 1
     6    3    4 ar
     7    3   33 1
     8    4    9 1
     9    4    5 ar
    10    5    6 ar
    11    5    7 1
    12    6   34 1
    13    7    8 2
    14    7   11 1
    15    8    9 1
    16    8   35 1
    17    9   10 1
    18   11   12 1
    19   11   16 1
    20   11   13 1
    21   13   14 1
    22   13   36 1
    23   13   37 1
    24   14   15 2
    25   14   27 1
    26   15   16 1
    27   16   17 1
    28   17   22 ar
    29   17   18 ar
    30   18   19 ar
    31   18   38 1
    32   19   20 ar
    33   19   39 1
    34   20   21 ar
    35   20   23 1
    36   21   22 ar
    37   21   40 1
    38   22   41 1
    39   23   24 2
    40   23   25 2
    41   23   26 1
    42   26   42 1
    43   26   43 1
    44   27   28 1
    45   27   29 1
    46   27   30 1
@<TRIPOS>MOLECULE
ZINC38337299
   33    33     0     0     0
SMALL
USER_CHARGES

@<TRIPOS>ATOM
      1 C1          0.0044    1.5160    0.0332 C.3       1 <0>        -0.1544
      2 C2          0.0137   -0.0139    0.0153 C.3       1 <0>        -0.1260
      3 C3          0.7299   -0.5048   -1.2445 C.3       1 <0>        -0.1144
      4 C4          0.7392   -2.0347   -1.2624 C.3       1 <0>        -0.0778
      5 C5          1.4446   -2.5182   -2.5032 C.ar      1 <0>        -0.1116
      6 C6          0.7265   -2.7335   -3.6655 C.ar      1 <0>        -0.0800
      7 C7          1.3698   -3.1761   -4.8044 C.ar      1 <0>        -0.1700
      8 C8          2.7399   -3.4052   -4.7818 C.ar      1 <0>         0.1715
      9 C9          3.4580   -3.1879   -3.6129 C.ar      1 <0>        -0.1309
     10 C10         2.8091   -2.7401   -2.4788 C.ar      1 <0>        -0.0773
     11 C11         4.9443   -3.4350   -3.5838 C.3       1 <0>        -0.1141
     12 N1          3.3942   -3.8537   -5.9328 N.pl3     1 <0>        -0.6759
     13 C12         2.6658   -4.1822   -7.0558 C.2       1 <0>         0.3353
     14 N2          3.2593   -4.6897   -8.0851 N.2       1 <0>        -0.4051
     15 O1          4.6374   -5.0089   -8.0218 O.3       1 <0>        -0.4261
     16 H1          1.0298    1.8856    0.0309 H         1 <0>         0.0534
     17 H2         -0.5175    1.8865   -0.8491 H         1 <0>         0.0536
     18 H3         -0.5058    1.8657    0.9307 H         1 <0>         0.0538
     19 H4          0.5355   -0.3844    0.8976 H         1 <0>         0.0613
     20 H5         -1.0117   -0.3835    0.0177 H         1 <0>         0.0615
     21 H6          0.2080   -0.1343   -2.1268 H         1 <0>         0.0629
     22 H7          1.7553   -0.1352   -1.2468 H         1 <0>         0.0623
     23 H8          1.2610   -2.4052   -0.3801 H         1 <0>         0.0705
     24 H9         -0.2862   -2.4043   -1.2600 H         1 <0>         0.0712
     25 H10        -0.3386   -2.5556   -3.6823 H         1 <0>         0.1261
     26 H11         0.8084   -3.3444   -5.7115 H         1 <0>         0.1259
     27 H12         3.3675   -2.5671   -1.5707 H         1 <0>         0.1251
     28 H13         5.4700   -2.5211   -3.8605 H         1 <0>         0.0707
     29 H14         5.2429   -3.7361   -2.5796 H         1 <0>         0.0728
     30 H15         5.1950   -4.2264   -4.2901 H         1 <0>         0.0604
     31 H16         4.3609   -3.9337   -5.9411 H         1 <0>         0.4162
     32 H17         1.5989   -4.0152   -7.0754 H         1 <0>         0.2044
     33 H18         4.9749   -5.4530   -8.8117 H         1 <0>         0.4045
@<TRIPOS>BOND
     1    1    2 1
     2    1   16 1
     3    1   17 1
     4    1   18 1
     5    2    3 1
     6    2   19 1
     7    2   20 1
     8    3    4 1
     9    3   21 1
    10    3   22 1
    11    4    5 1
    12    4   23 1
    13    4   24 1
    14    5   10 ar
    15    5    6 ar
    16    6    7 ar
    17    6   25 1
    18    7    8 ar
    19    7   26 1
    20    8    9 ar
    21    8   12 1
    22    9   10 ar
    23    9   11 1
    24   10   27 1
    25   11   28 1
    26   11   29 1
    27   11   30 1
    28   12   13 1
    29   12   31 1
    30   13   14 2
    31   13   32 1
    32   14   15 1
    33   15   33 1
@<TRIPOS>MOLECULE
ZINC01845036
   26    27     0     0     0
SMALL
USER_CHARGES
1-[3-(trifluoromethyl)phenyl]-4,5-dihydropyrazol-3-amine
@<TRIPOS>ATOM
      1 C1          1.1769    1.7819    0.0004 C.ar      1 <0>        -0.0722
      2 C2         -0.0126    1.0758    0.0080 C.ar      1 <0>        -0.1293
      3 C3         -1.2205    1.7491    0.0173 C.ar      1 <0>        -0.1395
      4 C4         -1.2433    3.1298    0.0298 C.ar      1 <0>        -0.1202
      5 C5         -0.0501    3.8429    0.0218 C.ar      1 <0>         0.2468
      6 C6          1.1623    3.1623    0.0070 C.ar      1 <0>        -0.1621
      7 N1         -0.0690    5.2369    0.0281 N.pl3     1 <0>        -0.4689
      8 C7          1.1160    6.1097    0.0204 C.3       1 <0>         0.0893
      9 C8          0.5165    7.5300    0.0318 C.3       1 <0>        -0.1304
     10 C9         -0.9769    7.2939    0.0451 C.2       1 <0>         0.3283
     11 N2         -1.2130    6.0324    0.0366 N.2       1 <0>        -0.3279
     12 N3         -1.9433    8.2881    0.0583 N.pl3     1 <0>        -0.8296
     13 C10        -2.5135    0.9751    0.0192 C.3       1 <0>         0.5086
     14 F1         -2.2361   -0.3961    0.0105 F         1 <0>        -0.1765
     15 F2         -3.2469    1.2952    1.1668 F         1 <0>        -0.1763
     16 F3         -3.2577    1.3076   -1.1177 F         1 <0>        -0.1762
     17 H1          2.1183    1.2526   -0.0111 H         1 <0>         0.1373
     18 H2          0.0021   -0.0041    0.0020 H         1 <0>         0.1367
     19 H3         -2.1870    3.6549    0.0409 H         1 <0>         0.1395
     20 H4          2.0914    3.7129    0.0004 H         1 <0>         0.1299
     21 H5          1.7223    5.9417    0.9105 H         1 <0>         0.0817
     22 H6          1.7067    5.9470   -0.8812 H         1 <0>         0.0816
     23 H7          0.8265    8.0687    0.9272 H         1 <0>         0.1030
     24 H8          0.8095    8.0760   -0.8649 H         1 <0>         0.1031
     25 H9         -1.6790    9.2214    0.0596 H         1 <0>         0.4138
     26 H10        -2.8836    8.0502    0.0663 H         1 <0>         0.4097
@<TRIPOS>BOND
     1    1    6 ar
     2    1    2 ar
     3    1   17 1
     4    2    3 ar
     5    2   18 1
     6    3    4 ar
     7    3   13 1
     8    4    5 ar
     9    4   19 1
    10    5    6 ar
    11    5    7 1
    12    6   20 1
    13    7   11 1
    14    7    8 1
    15    8    9 1
    16    8   21 1
    17    8   22 1
    18    9   10 1
    19    9   23 1
    20    9   24 1
    21   10   11 2
    22   10   12 1
    23   12   25 1
    24   12   26 1
    25   13   14 1
    26   13   15 1
    27   13   16 1
@<TRIPOS>MOLECULE
ZINC00001427
   32    33     0     0     0
SMALL
USER_CHARGES

@<TRIPOS>ATOM
      1 C1         -0.0167    1.3792    0.0096 C.ar      1 <0>        -0.1200
      2 C2          1.1686    2.0925    0.0021 C.ar      1 <0>        -0.1196
      3 C3          2.3774    1.4271   -0.0129 C.ar      1 <0>        -0.1091
      4 C4          2.4026    0.0331   -0.0206 C.ar      1 <0>        -0.0462
      5 C5          1.2048   -0.6804   -0.0130 C.ar      1 <0>        -0.1079
      6 C6          0.0021   -0.0041    0.0020 C.ar      1 <0>        -0.1188
      7 C7          3.6979   -0.6876   -0.0373 C.ar      1 <0>        -0.0261
      8 C8          4.8947    0.0304   -0.0395 C.ar      1 <0>        -0.1260
      9 C9          6.0939   -0.6339   -0.0545 C.ar      1 <0>        -0.0633
     10 C10         6.1173   -2.0337   -0.0675 C.ar      1 <0>        -0.1588
     11 C11         4.9154   -2.7517   -0.0653 C.ar      1 <0>        -0.0657
     12 C12         3.7187   -2.0831   -0.0449 C.ar      1 <0>        -0.1235
     13 C13         7.4017   -2.7483   -0.0841 C.2       1 <0>         0.3884
     14 O1          8.4422   -2.1253   -0.0864 O.2       1 <0>        -0.4572
     15 C14         7.4255   -4.2551   -0.0981 C.3       1 <0>        -0.1380
     16 C15         8.8758   -4.7421   -0.1138 C.3       1 <0>        -0.1742
     17 C16         8.8997   -6.2488   -0.1279 C.2       1 <0>         0.4906
     18 O2          7.8536   -6.8751   -0.1256 O.co2     1 <0>        -0.7010
     19 O3          9.9650   -6.8416   -0.1416 O.co2     1 <0>        -0.7030
     20 H1         -0.9603    1.9042    0.0260 H         1 <0>         0.1216
     21 H2          1.1478    3.1723    0.0077 H         1 <0>         0.1235
     22 H3          3.3021    1.9850   -0.0191 H         1 <0>         0.1263
     23 H4          1.2182   -1.7603   -0.0193 H         1 <0>         0.1282
     24 H5         -0.9264   -0.5557    0.0079 H         1 <0>         0.1243
     25 H6          4.8762    1.1102   -0.0298 H         1 <0>         0.1282
     26 H7          7.0197   -0.0779   -0.0565 H         1 <0>         0.1343
     27 H8          4.9310   -3.8316   -0.0757 H         1 <0>         0.1424
     28 H9          2.7914   -2.6366   -0.0387 H         1 <0>         0.1309
     29 H10         6.9244   -4.6347    0.7923 H         1 <0>         0.0978
     30 H11         6.9106   -4.6183   -0.9875 H         1 <0>         0.0979
     31 H12         9.3770   -4.3624   -1.0043 H         1 <0>         0.0620
     32 H13         9.3908   -4.3788    0.7756 H         1 <0>         0.0620
@<TRIPOS>BOND
     1    1    6 ar
     2    1    2 ar
     3    1   20 1
     4    2    3 ar
     5    2   21 1
     6    3    4 ar
     7    3   22 1
     8    4    5 ar
     9    4    7 1
    10    5    6 ar
    11    5   23 1
    12    6   24 1
    13    7   12 ar
    14    7    8 ar
    15    8    9 ar
    16    8   25 1
    17    9   10 ar
    18    9   26 1
    19   10   11 ar
    20   10   13 1
    21   11   12 ar
    22   11   27 1
    23   12   28 1
    24   13   14 2
    25   13   15 1
    26   15   16 1
    27   15   29 1
    28   15   30 1
    29   16   17 1
    30   16   31 1
    31   16   32 1
    32   17   18 2
    33   17   19 1
@<TRIPOS>MOLECULE
ZINC03915524
   38    39     0     0     0
SMALL
USER_CHARGES
3-(3,4-dihydroxyphenyl)-1-(2,5-dimethoxyphenyl)-prop-2-en-1-one
@<TRIPOS>ATOM
      1 C1         -6.4676   -0.8369    0.8120 C.3       1 <0>         0.0261
      2 O1         -5.9119   -0.0104    1.8368 O.3       1 <0>        -0.3155
      3 C2         -4.6182    0.3788    1.6823 C.ar      1 <0>         0.0786
      4 C3         -3.9008   -0.0287    0.5638 C.ar      1 <0>        -0.1342
      5 C4         -2.5883    0.3652    0.3956 C.ar      1 <0>        -0.1831
      6 C5         -1.9734    1.1635    1.3480 C.ar      1 <0>         0.1494
      7 C6         -2.6911    1.5783    2.4779 C.ar      1 <0>        -0.1572
      8 C7         -4.0204    1.1791    2.6378 C.ar      1 <0>        -0.0695
      9 C8         -2.0459    2.4335    3.4939 C.2       1 <0>         0.4241
     10 O2         -0.8871    2.7801    3.3513 O.2       1 <0>        -0.4349
     11 C9         -2.7977    2.8639    4.6706 C.2       1 <0>        -0.2267
     12 C10        -2.2068    3.6470    5.6010 C.2       1 <0>        -0.0166
     13 C11        -2.9626    4.0798    6.7840 C.ar      1 <0>        -0.0712
     14 C12        -4.2950    3.6826    6.9501 C.ar      1 <0>        -0.0907
     15 C13        -5.0011    4.0899    8.0602 C.ar      1 <0>        -0.1317
     16 C14        -4.3952    4.8944    9.0166 C.ar      1 <0>         0.0943
     17 C15        -3.0684    5.2939    8.8587 C.ar      1 <0>         0.0788
     18 C16        -2.3511    4.8861    7.7518 C.ar      1 <0>        -0.1048
     19 O3         -2.4791    6.0809    9.7984 O.3       1 <0>        -0.4860
     20 O4         -5.0968    5.2927   10.1091 O.3       1 <0>        -0.4868
     21 O5         -0.6816    1.5467    1.1837 O.3       1 <0>        -0.2858
     22 C17        -0.0127    1.0858    0.0080 C.3       1 <0>         0.0208
     23 H1         -5.8913   -1.7590    0.7365 H         1 <0>         0.0555
     24 H2         -7.5025   -1.0743    1.0580 H         1 <0>         0.1026
     25 H3         -6.4327   -0.3077   -0.1403 H         1 <0>         0.0556
     26 H4         -4.3736   -0.6537   -0.1793 H         1 <0>         0.1366
     27 H5         -2.0382    0.0477   -0.4779 H         1 <0>         0.1388
     28 H6         -4.5798    1.4953    3.5058 H         1 <0>         0.1466
     29 H7         -3.8253    2.5566    4.7971 H         1 <0>         0.1353
     30 H8         -1.1793    3.9544    5.4745 H         1 <0>         0.1380
     31 H9         -4.7686    3.0568    6.2082 H         1 <0>         0.1373
     32 H10        -6.0286    3.7826    8.1875 H         1 <0>         0.1391
     33 H11        -1.3222    5.1912    7.6307 H         1 <0>         0.1404
     34 H12        -2.0400    5.5881   10.5050 H         1 <0>         0.3894
     35 H13        -5.0310    4.6880   10.8608 H         1 <0>         0.3908
     36 H14         0.0021   -0.0041    0.0020 H         1 <0>         0.0563
     37 H15         1.0099    1.4631    0.0003 H         1 <0>         0.1041
     38 H16        -0.5399    1.4469   -0.8751 H         1 <0>         0.0564
@<TRIPOS>BOND
     1    1    2 1
     2    1   23 1
     3    1   24 1
     4    1   25 1
     5    2    3 1
     6    3    8 ar
     7    3    4 ar
     8    4    5 ar
     9    4   26 1
    10    5    6 ar
    11    5   27 1
    12    6    7 ar
    13    6   21 1
    14    7    8 ar
    15    7    9 1
    16    8   28 1
    17    9   10 2
    18    9   11 1
    19   11   12 2
    20   11   29 1
    21   12   13 1
    22   12   30 1
    23   13   18 ar
    24   13   14 ar
    25   14   15 ar
    26   14   31 1
    27   15   16 ar
    28   15   32 1
    29   16   17 ar
    30   16   20 1
    31   17   18 ar
    32   17   19 1
    33   18   33 1
    34   19   34 1
    35   20   35 1
    36   21   22 1
    37   22   36 1
    38   22   37 1
    39   22   38 1
@<TRIPOS>MOLECULE
ZINC04474564
   55    54     0     0     0
SMALL
USER_CHARGES

@<TRIPOS>ATOM
      1 C1          4.0191   -0.6958   -1.7942 C.3       1 <0>        -0.1474
      2 C2          3.6297   -2.1330   -2.1457 C.3       1 <0>        -0.1075
      3 C3          2.3021   -2.4627   -1.5134 C.2       1 <0>        -0.1625
      4 C4          1.3312   -2.9507   -2.2451 C.2       1 <0>        -0.1505
      5 C5          1.5885   -3.3343   -3.6796 C.3       1 <0>        -0.0837
      6 C6          1.1480   -4.7576   -3.9057 C.2       1 <0>        -0.1566
      7 C7          0.3355   -5.0428   -4.8929 C.2       1 <0>        -0.1468
      8 C8         -0.0304   -3.9815   -5.8983 C.3       1 <0>        -0.0833
      9 C9          0.2525   -4.4882   -7.2891 C.2       1 <0>        -0.1598
     10 C10        -0.6864   -4.4546   -8.2020 C.2       1 <0>        -0.1438
     11 C11        -1.9901   -3.7546   -7.9167 C.3       1 <0>        -0.0828
     12 C12        -2.2736   -2.7559   -9.0091 C.2       1 <0>        -0.1645
     13 C13        -3.4181   -2.7887   -9.6456 C.2       1 <0>        -0.1413
     14 C14        -4.5125   -3.7147   -9.1810 C.3       1 <0>        -0.0861
     15 C15        -5.7876   -2.9329   -8.9967 C.2       1 <0>        -0.1684
     16 C16        -6.8722   -3.2878   -9.6399 C.2       1 <0>        -0.1327
     17 C17        -6.8050   -4.3609  -10.6959 C.3       1 <0>        -0.0879
     18 C18        -7.7010   -5.5076  -10.3046 C.2       1 <0>        -0.1793
     19 C19        -8.5945   -5.9587  -11.1498 C.2       1 <0>        -0.1383
     20 C20        -8.6197   -5.4437  -12.5658 C.3       1 <0>        -0.0800
     21 C21        -8.5669   -6.6235  -13.5386 C.3       1 <0>        -0.1770
     22 C22        -8.5922   -6.1085  -14.9547 C.2       1 <0>         0.4885
     23 O1         -8.6472   -4.9090  -15.1662 O.co2     1 <0>        -0.6992
     24 O2         -8.5575   -6.8913  -15.8887 O.co2     1 <0>        -0.7077
     25 H1          4.9794   -0.4573   -2.2516 H         1 <0>         0.0553
     26 H2          3.2582   -0.0112   -2.1689 H         1 <0>         0.0548
     27 H3          4.0973   -0.5949   -0.7117 H         1 <0>         0.0536
     28 H4          3.5516   -2.2339   -3.2282 H         1 <0>         0.0759
     29 H5          4.3906   -2.8176   -1.7710 H         1 <0>         0.0679
     30 H6          2.1511   -2.2967   -0.4570 H         1 <0>         0.1082
     31 H7          0.3465   -3.0781   -1.8203 H         1 <0>         0.1089
     32 H8          1.0282   -2.6714   -4.3390 H         1 <0>         0.0841
     33 H9          2.6534   -3.2450   -3.8942 H         1 <0>         0.0830
     34 H10         1.5022   -5.5425   -3.2539 H         1 <0>         0.1087
     35 H11        -0.0722   -6.0386   -4.9863 H         1 <0>         0.1103
     36 H12        -1.0903   -3.7442   -5.8067 H         1 <0>         0.0847
     37 H13         0.5602   -3.0847   -5.7112 H         1 <0>         0.0818
     38 H14         1.2293   -4.8790   -7.5332 H         1 <0>         0.1085
     39 H15        -0.5261   -4.9285   -9.1592 H         1 <0>         0.1108
     40 H16        -2.7953   -4.4882   -7.8772 H         1 <0>         0.0851
     41 H17        -1.9228   -3.2371   -6.9598 H         1 <0>         0.0806
     42 H18        -1.5332   -2.0132   -9.2672 H         1 <0>         0.1074
     43 H19        -3.5775   -2.1520  -10.5033 H         1 <0>         0.1109
     44 H20        -4.6690   -4.4948   -9.9260 H         1 <0>         0.0900
     45 H21        -4.2252   -4.1699   -8.2332 H         1 <0>         0.0819
     46 H22        -5.8072   -2.0801   -8.3344 H         1 <0>         0.1060
     47 H23        -7.8146   -2.8114   -9.4134 H         1 <0>         0.1084
     48 H24        -7.1345   -3.9518  -11.6510 H         1 <0>         0.0952
     49 H25        -5.7788   -4.7166  -10.7876 H         1 <0>         0.0803
     50 H26        -7.6066   -5.9575   -9.3273 H         1 <0>         0.1007
     51 H27        -9.3129   -6.6997  -10.8318 H         1 <0>         0.1021
     52 H28        -9.5366   -4.8778  -12.7304 H         1 <0>         0.0675
     53 H29        -7.7585   -4.7966  -12.7325 H         1 <0>         0.0747
     54 H30        -7.6500   -7.1893  -13.3741 H         1 <0>         0.0558
     55 H31        -9.4281   -7.2706  -13.3719 H         1 <0>         0.0554
@<TRIPOS>BOND
     1    1    2 1
     2    1   25 1
     3    1   26 1
     4    1   27 1
     5    2    3 1
     6    2   28 1
     7    2   29 1
     8    3    4 2
     9    3   30 1
    10    4    5 1
    11    4   31 1
    12    5    6 1
    13    5   32 1
    14    5   33 1
    15    6    7 2
    16    6   34 1
    17    7    8 1
    18    7   35 1
    19    8    9 1
    20    8   36 1
    21    8   37 1
    22    9   10 2
    23    9   38 1
    24   10   11 1
    25   10   39 1
    26   11   12 1
    27   11   40 1
    28   11   41 1
    29   12   13 2
    30   12   42 1
    31   13   14 1
    32   13   43 1
    33   14   15 1
    34   14   44 1
    35   14   45 1
    36   15   16 2
    37   15   46 1
    38   16   17 1
    39   16   47 1
    40   17   18 1
    41   17   48 1
    42   17   49 1
    43   18   19 2
    44   18   50 1
    45   19   20 1
    46   19   51 1
    47   20   21 1
    48   20   52 1
    49   20   53 1
    50   21   22 1
    51   21   54 1
    52   21   55 1
    53   22   23 2
    54   22   24 1
@<TRIPOS>MOLECULE
ZINC04474603
   51    50     0     0     0
SMALL
USER_CHARGES

@<TRIPOS>ATOM
      1 C1          2.3299    1.0201   -0.8333 C.3       1 <0>        -0.1472
      2 C2          2.0803   -0.4696   -1.0769 C.3       1 <0>        -0.1072
      3 C3          0.6976   -0.8320   -0.5996 C.2       1 <0>        -0.1637
      4 C4         -0.1277   -1.4606   -1.3996 C.2       1 <0>        -0.1495
      5 C5          0.3546   -1.9636   -2.7358 C.3       1 <0>        -0.0832
      6 C6          0.0362   -3.4309   -2.8650 C.2       1 <0>        -0.1581
      7 C7         -0.6077   -3.8712   -3.9174 C.2       1 <0>        -0.1456
      8 C8         -0.8888   -2.9437   -5.0714 C.3       1 <0>        -0.0834
      9 C9         -0.3802   -3.5620   -6.3482 C.2       1 <0>        -0.1605
     10 C10        -1.1789   -3.6868   -7.3790 C.2       1 <0>        -0.1424
     11 C11        -2.5492   -3.0603   -7.3507 C.3       1 <0>        -0.0846
     12 C12        -2.7325   -2.1976   -8.5726 C.2       1 <0>        -0.1648
     13 C13        -3.7708   -2.3768   -9.3511 C.2       1 <0>        -0.1398
     14 C14        -4.8630   -3.3314   -8.9427 C.3       1 <0>        -0.0871
     15 C15        -6.1957   -2.6319   -9.0183 C.2       1 <0>        -0.1716
     16 C16        -7.1549   -3.1282   -9.7597 C.2       1 <0>        -0.1368
     17 C17        -6.8743   -4.2924  -10.6747 C.3       1 <0>        -0.1087
     18 C18        -7.7596   -5.4762  -10.2799 C.3       1 <0>        -0.0876
     19 C19        -7.4748   -6.6581  -11.2088 C.3       1 <0>        -0.1843
     20 C20        -8.3467   -7.8241  -10.8200 C.2       1 <0>         0.4875
     21 O1         -9.1240   -7.7194   -9.8865 O.co2     1 <0>        -0.6995
     22 O2         -8.2750   -8.8720  -11.4390 O.co2     1 <0>        -0.7094
     23 H1          3.3300    1.2822   -1.1785 H         1 <0>         0.0550
     24 H2          1.5915    1.6064   -1.3803 H         1 <0>         0.0547
     25 H3          2.2459    1.2330    0.2324 H         1 <0>         0.0535
     26 H4          2.1643   -0.6826   -2.1426 H         1 <0>         0.0759
     27 H5          2.8187   -1.0559   -0.5300 H         1 <0>         0.0676
     28 H6          0.3870   -0.5734    0.4019 H         1 <0>         0.1081
     29 H7         -1.1536   -1.6185   -1.1014 H         1 <0>         0.1092
     30 H8         -0.1438   -1.4121   -3.5330 H         1 <0>         0.0840
     31 H9          1.4321   -1.8175   -2.8117 H         1 <0>         0.0825
     32 H10         0.3390   -4.1194   -2.0899 H         1 <0>         0.1087
     33 H11        -0.9371   -4.8990   -3.9579 H         1 <0>         0.1111
     34 H12        -1.9632   -2.7779   -5.1508 H         1 <0>         0.0852
     35 H13        -0.3856   -1.9916   -4.9032 H         1 <0>         0.0812
     36 H14         0.6427   -3.9023   -6.4133 H         1 <0>         0.1081
     37 H15        -0.8554   -4.2387   -8.2491 H         1 <0>         0.1105
     38 H16        -3.3069   -3.8439   -7.3421 H         1 <0>         0.0872
     39 H17        -2.6502   -2.4476   -6.4549 H         1 <0>         0.0808
     40 H18        -2.0079   -1.4317   -8.8066 H         1 <0>         0.1062
     41 H19        -3.8440   -1.8403  -10.2856 H         1 <0>         0.1083
     42 H20        -4.8649   -4.1901   -9.6141 H         1 <0>         0.0911
     43 H21        -4.6873   -3.6690   -7.9214 H         1 <0>         0.0829
     44 H22        -6.3600   -1.7214   -8.4612 H         1 <0>         0.1040
     45 H23        -8.1467   -2.7031   -9.7153 H         1 <0>         0.1076
     46 H24        -7.0891   -4.0054  -11.7040 H         1 <0>         0.0661
     47 H25        -5.8260   -4.5780  -10.5882 H         1 <0>         0.0718
     48 H26        -7.5449   -5.7631   -9.2505 H         1 <0>         0.0586
     49 H27        -8.8080   -5.1906  -10.3663 H         1 <0>         0.0584
     50 H28        -7.6895   -6.3711  -12.2382 H         1 <0>         0.0548
     51 H29        -6.4264   -6.9436  -11.1224 H         1 <0>         0.0544
@<TRIPOS>BOND
     1    1    2 1
     2    1   23 1
     3    1   24 1
     4    1   25 1
     5    2    3 1
     6    2   26 1
     7    2   27 1
     8    3    4 2
     9    3   28 1
    10    4    5 1
    11    4   29 1
    12    5    6 1
    13    5   30 1
    14    5   31 1
    15    6    7 2
    16    6   32 1
    17    7    8 1
    18    7   33 1
    19    8    9 1
    20    8   34 1
    21    8   35 1
    22    9   10 2
    23    9   36 1
    24   10   11 1
    25   10   37 1
    26   11   12 1
    27   11   38 1
    28   11   39 1
    29   12   13 2
    30   12   40 1
    31   13   14 1
    32   13   41 1
    33   14   15 1
    34   14   42 1
    35   14   43 1
    36   15   16 2
    37   15   44 1
    38   16   17 1
    39   16   45 1
    40   17   18 1
    41   17   46 1
    42   17   47 1
    43   18   19 1
    44   18   48 1
    45   18   49 1
    46   19   20 1
    47   19   50 1
    48   19   51 1
    49   20   21 2
    50   20   22 1
@<TRIPOS>MOLECULE
ZINC38141758
   32    32     0     0     0
SMALL
USER_CHARGES

@<TRIPOS>ATOM
      1 C1         -0.0187    1.5258    0.0104 C.3       1 <0>        -0.1171
      2 C2          0.0021   -0.0041    0.0020 C.3       1 <0>        -0.1346
      3 H1          0.5123   -0.3556   -0.8948 H         1 <0>         0.0688
      4 C3         -1.4117   -0.5257    0.0127 C.ar      1 <0>        -0.0283
      5 C4         -2.2591   -0.2043    1.0565 C.ar      1 <0>        -0.0789
      6 C5         -3.5560   -0.6827    1.0663 C.ar      1 <0>        -0.1224
      7 C6         -4.0056   -1.4823    0.0321 C.ar      1 <0>        -0.1045
      8 C7         -3.1585   -1.8029   -1.0121 C.ar      1 <0>        -0.1215
      9 C8         -1.8629   -1.3209   -1.0241 C.ar      1 <0>        -0.1299
     10 C9         -5.4191   -2.0047    0.0433 C.3       1 <0>        -0.0688
     11 C10        -6.3366   -1.0086   -0.6687 C.3       1 <0>        -0.0917
     12 C11        -5.9482   -0.9236   -2.1461 C.3       1 <0>        -0.1490
     13 C12        -7.7883   -1.4770   -0.5491 C.3       1 <0>        -0.1463
     14 C13         0.7309   -0.5033    1.2229 C.2       1 <0>         0.5000
     15 O1          0.1557   -1.2165    2.0272 O.co2     1 <0>        -0.6863
     16 O2          1.8959   -0.1939    1.4064 O.co2     1 <0>        -0.6999
     17 H2          1.0039    1.9031    0.0027 H         1 <0>         0.0588
     18 H3         -0.5459    1.8868   -0.8726 H         1 <0>         0.0394
     19 H4         -0.5289    1.8773    0.9072 H         1 <0>         0.0469
     20 H5         -1.9079    0.4204    1.8645 H         1 <0>         0.1152
     21 H6         -4.2179   -0.4322    1.8822 H         1 <0>         0.1106
     22 H7         -3.5096   -2.4278   -1.8199 H         1 <0>         0.1100
     23 H8         -1.2022   -1.5684   -1.8418 H         1 <0>         0.1111
     24 H9         -5.4557   -2.9647   -0.4717 H         1 <0>         0.0650
     25 H10        -5.7512   -2.1322    1.0737 H         1 <0>         0.0658
     26 H11        -6.2328   -0.0260   -0.2086 H         1 <0>         0.0696
     27 H12        -6.6019   -0.2140   -2.6534 H         1 <0>         0.0477
     28 H13        -4.9140   -0.5899   -2.2313 H         1 <0>         0.0635
     29 H14        -6.0521   -1.9062   -2.6062 H         1 <0>         0.0505
     30 H15        -8.0650   -1.5376    0.5035 H         1 <0>         0.0526
     31 H16        -8.4419   -0.7674   -1.0563 H         1 <0>         0.0514
     32 H17        -7.8921   -2.4596   -1.0092 H         1 <0>         0.0524
@<TRIPOS>BOND
     1    1    2 1
     2    1   17 1
     3    1   18 1
     4    1   19 1
     5    2    3 1
     6    2    4 1
     7    2   14 1
     8    4    9 ar
     9    4    5 ar
    10    5    6 ar
    11    5   20 1
    12    6    7 ar
    13    6   21 1
    14    7    8 ar
    15    7   10 1
    16    8    9 ar
    17    8   22 1
    18    9   23 1
    19   10   11 1
    20   10   24 1
    21   10   25 1
    22   11   12 1
    23   11   13 1
    24   11   26 1
    25   12   27 1
    26   12   28 1
    27   12   29 1
    28   13   30 1
    29   13   31 1
    30   13   32 1
    31   14   15 2
    32   14   16 1
@<TRIPOS>MOLECULE
ZINC04617749
   32    33     0     0     0
SMALL
USER_CHARGES

@<TRIPOS>ATOM
      1 C1         -0.7791    1.7068   -0.4466 C.3       1 <0>        -0.6337
      2 S1         -0.2778   -0.0143   -0.1683 S.o2      1 <0>         2.5283
      3 O1          0.6369   -0.0883    0.9166 O.2       1 <0>        -1.0193
      4 O2         -1.4121   -0.8687   -0.2190 O.2       1 <0>        -1.0193
      5 N1          0.6157   -0.4184   -1.5027 N.2       1 <0>        -1.0578
      6 C2          1.1659   -1.7002   -1.6144 C.ar      1 <0>         0.3237
      7 C3          0.9592   -2.6357   -0.6111 C.ar      1 <0>        -0.2432
      8 C4          1.5037   -3.9011   -0.7237 C.ar      1 <0>        -0.0105
      9 C5          2.2547   -4.2380   -1.8347 C.ar      1 <0>        -0.1318
     10 C6          2.4650   -3.3110   -2.8388 C.ar      1 <0>        -0.1018
     11 C7          1.9180   -2.0423   -2.7364 C.ar      1 <0>         0.0637
     12 O3          2.1192   -1.1313   -3.7258 O.3       1 <0>        -0.2309
     13 C8          2.8575   -1.5106   -4.8016 C.ar      1 <0>         0.0910
     14 C9          2.2373   -2.0822   -5.9035 C.ar      1 <0>        -0.1293
     15 C10         2.9901   -2.4664   -6.9961 C.ar      1 <0>        -0.1080
     16 C11         4.3605   -2.2824   -6.9923 C.ar      1 <0>        -0.1260
     17 C12         4.9811   -1.7134   -5.8953 C.ar      1 <0>        -0.1080
     18 C13         4.2322   -1.3218   -4.8027 C.ar      1 <0>        -0.1293
     19 N2          2.8355   -5.5947   -1.9492 N.pl3     1 <0>         0.0667
     20 O4          2.6530   -6.4064   -1.0720 O.2       1 <0>        -0.2067
     21 O5          3.4925   -5.8911   -2.9199 O.3       1 <0>        -0.2076
     22 H1          0.1081    2.3326   -0.5424 H         1 <0>         0.1192
     23 H2         -1.3689    1.7700   -1.3611 H         1 <0>         0.1192
     24 H3         -1.3777    2.0517    0.3964 H         1 <0>         0.1072
     25 H4          0.3733   -2.3752    0.2580 H         1 <0>         0.1322
     26 H5          1.3424   -4.6285    0.0582 H         1 <0>         0.1369
     27 H6          3.0524   -3.5774   -3.7051 H         1 <0>         0.1405
     28 H7          1.1670   -2.2268   -5.9068 H         1 <0>         0.1298
     29 H8          2.5079   -2.9113   -7.8540 H         1 <0>         0.1258
     30 H9          4.9473   -2.5838   -7.8474 H         1 <0>         0.1232
     31 H10         6.0517   -1.5711   -5.8947 H         1 <0>         0.1259
     32 H11         4.7168   -0.8730   -3.9481 H         1 <0>         0.1298
@<TRIPOS>BOND
     1    1    2 1
     2    1   22 1
     3    1   23 1
     4    1   24 1
     5    2    3 2
     6    2    4 2
     7    2    5 1
     8    5    6 1
     9    6   11 ar
    10    6    7 ar
    11    7    8 ar
    12    7   25 1
    13    8    9 ar
    14    8   26 1
    15    9   10 ar
    16    9   19 1
    17   10   11 ar
    18   10   27 1
    19   11   12 1
    20   12   13 1
    21   13   18 ar
    22   13   14 ar
    23   14   15 ar
    24   14   28 1
    25   15   16 ar
    26   15   29 1
    27   16   17 ar
    28   16   30 1
    29   17   18 ar
    30   17   31 1
    31   18   32 1
    32   19   20 2
    33   19   21 1
@<TRIPOS>MOLECULE
ZINC04617749
   33    34     0     0     0
SMALL
USER_CHARGES

@<TRIPOS>ATOM
      1 C1         -0.0786    1.6136    0.1793 C.3       1 <0>        -0.6678
      2 S1          0.0331   -0.1910    0.0329 S.o2      1 <0>         2.6050
      3 O1          0.9079   -0.7093    1.0255 O.2       1 <0>        -0.9425
      4 O2         -1.2607   -0.7479   -0.1547 O.2       1 <0>        -0.9375
      5 N1          0.8183   -0.4538   -1.4012 N.pl3     1 <0>        -1.0459
      6 C2          2.1111    0.0464   -1.5930 C.ar      1 <0>         0.1861
      7 C3          3.0063    0.0848   -0.5339 C.ar      1 <0>        -0.1431
      8 C4          4.2826    0.5794   -0.7259 C.ar      1 <0>        -0.0495
      9 C5          4.6705    1.0365   -1.9718 C.ar      1 <0>        -0.0295
     10 C6          3.7839    1.0015   -3.0322 C.ar      1 <0>        -0.1125
     11 C7          2.5046    0.5020   -2.8497 C.ar      1 <0>         0.1046
     12 O3          1.6333    0.4616   -3.8930 O.3       1 <0>        -0.2413
     13 C8          2.0967    0.8002   -5.1246 C.ar      1 <0>         0.0653
     14 C9          3.0182   -0.0134   -5.7683 C.ar      1 <0>        -0.1369
     15 C10         3.4874    0.3329   -7.0206 C.ar      1 <0>        -0.0992
     16 C11         3.0400    1.4894   -7.6324 C.ar      1 <0>        -0.1094
     17 C12         2.1221    2.3022   -6.9929 C.ar      1 <0>        -0.1013
     18 C13         1.6451    1.9573   -5.7432 C.ar      1 <0>        -0.1147
     19 N2          6.0386    1.5655   -2.1708 N.pl3     1 <0>         0.0333
     20 O4          6.8151    1.5973   -1.2447 O.2       1 <0>        -0.1476
     21 O5          6.3796    1.9657   -3.2595 O.3       1 <0>        -0.1551
     22 H1          0.9243    2.0405    0.1846 H         1 <0>         0.1306
     23 H2         -0.6389    2.0128   -0.6661 H         1 <0>         0.1354
     24 H3         -0.5883    1.8720    1.1075 H         1 <0>         0.1408
     25 H4          2.7059   -0.2713    0.4404 H         1 <0>         0.1931
     26 H5          4.9786    0.6091    0.0995 H         1 <0>         0.1675
     27 H6          4.0900    1.3597   -4.0040 H         1 <0>         0.1655
     28 H7          3.3686   -0.9164   -5.2906 H         1 <0>         0.1308
     29 H8          4.2046   -0.2999   -7.5221 H         1 <0>         0.1346
     30 H9          3.4083    1.7586   -8.6113 H         1 <0>         0.1333
     31 H10         1.7745    3.2051   -7.4728 H         1 <0>         0.1360
     32 H11         0.9245    2.5899   -5.2462 H         1 <0>         0.1347
     33 H12         0.3821   -0.9545   -2.1083 H         1 <0>         0.4371
@<TRIPOS>BOND
     1    1    2 1
     2    1   22 1
     3    1   23 1
     4    1   24 1
     5    2    3 2
     6    2    4 2
     7    2    5 1
     8    5    6 1
     9    5   33 1
    10    6   11 ar
    11    6    7 ar
    12    7    8 ar
    13    7   25 1
    14    8    9 ar
    15    8   26 1
    16    9   10 ar
    17    9   19 1
    18   10   11 ar
    19   10   27 1
    20   11   12 1
    21   12   13 1
    22   13   18 ar
    23   13   14 ar
    24   14   15 ar
    25   14   28 1
    26   15   16 ar
    27   15   29 1
    28   16   17 ar
    29   16   30 1
    30   17   18 ar
    31   17   31 1
    32   18   32 1
    33   19   20 2
    34   19   21 1
@<TRIPOS>MOLECULE
ZINC45303085
   35    37     0     0     0
SMALL
USER_CHARGES

@<TRIPOS>ATOM
      1 C1         -0.0347    1.7105    0.0621 C.3       1 <0>        -0.6515
      2 S1         -0.0103   -0.1030    0.0231 S.o2      1 <0>         2.5027
      3 O1          0.8207   -0.6037    1.0613 O.2       1 <0>        -0.9395
      4 O2         -1.3268   -0.6064   -0.1576 O.2       1 <0>        -0.9412
      5 C2          0.8360   -0.5125   -1.4671 C.ar      1 <0>        -0.6613
      6 C3          0.1244   -0.6684   -2.6431 C.ar      1 <0>        -0.0316
      7 C4          0.7818   -0.9895   -3.8132 C.ar      1 <0>        -0.1049
      8 C5          2.1658   -1.1564   -3.8086 C.ar      1 <0>         0.0225
      9 C6          2.8777   -0.9976   -2.6207 C.ar      1 <0>        -0.1214
     10 C7          2.2102   -0.6713   -1.4577 C.ar      1 <0>        -0.0259
     11 C8          2.8779   -1.5020   -5.0625 C.ar      1 <0>         0.1738
     12 C9          4.2711   -1.6693   -5.0261 C.ar      1 <0>        -0.1477
     13 C10         4.9490   -1.9935   -6.1940 C.ar      1 <0>        -0.0597
     14 C11         4.1525   -2.1432   -7.4130 C.ar      1 <0>        -0.0798
     15 C12         4.7446   -2.4689   -8.6378 C.ar      1 <0>        -0.0755
     16 C13         3.9653   -2.5991   -9.7491 C.ar      1 <0>        -0.1430
     17 C14         2.5864   -2.4118   -9.6802 C.ar      1 <0>        -0.1029
     18 C15         1.9783   -2.0944   -8.5049 C.ar      1 <0>        -0.1102
     19 C16         2.7499   -1.9515   -7.3363 C.ar      1 <0>         0.1203
     20 N1          2.1811   -1.6463   -6.1693 N.ar      1 <0>        -0.4757
     21 C17         6.4137   -2.1792   -6.2057 C.2       1 <0>         0.5259
     22 O3          7.0681   -1.9426   -5.2002 O.co2     1 <0>        -0.6684
     23 O4          6.9724   -2.5697   -7.2209 O.co2     1 <0>        -0.6669
     24 H1          0.9879    2.0877    0.0625 H         1 <0>         0.1320
     25 H2         -0.5601    2.0857   -0.8162 H         1 <0>         0.1311
     26 H3         -0.5467    2.0476    0.9633 H         1 <0>         0.1301
     27 H4         -0.9478   -0.5388   -2.6455 H         1 <0>         0.1420
     28 H5          0.2252   -1.1117   -4.7306 H         1 <0>         0.1447
     29 H6          3.9501   -1.1256   -2.6113 H         1 <0>         0.1443
     30 H7          2.7612   -0.5440   -0.5376 H         1 <0>         0.1449
     31 H8          4.8108   -1.5467   -4.0987 H         1 <0>         0.1456
     32 H9          5.8125   -2.6159   -8.7028 H         1 <0>         0.1756
     33 H10         4.4228   -2.8502  -10.6947 H         1 <0>         0.1224
     34 H11         1.9904   -2.5201  -10.5743 H         1 <0>         0.1218
     35 H12         0.9083   -1.9523   -8.4690 H         1 <0>         0.1276
@<TRIPOS>BOND
     1    1    2 1
     2    1   24 1
     3    1   25 1
     4    1   26 1
     5    2    3 2
     6    2    4 2
     7    2    5 1
     8    5   10 ar
     9    5    6 ar
    10    6    7 ar
    11    6   27 1
    12    7    8 ar
    13    7   28 1
    14    8    9 ar
    15    8   11 1
    16    9   10 ar
    17    9   29 1
    18   10   30 1
    19   11   20 ar
    20   11   12 ar
    21   12   13 ar
    22   12   31 1
    23   13   14 ar
    24   13   21 1
    25   14   19 ar
    26   14   15 ar
    27   15   16 ar
    28   15   32 1
    29   16   17 ar
    30   16   33 1
    31   17   18 ar
    32   17   34 1
    33   18   19 ar
    34   18   35 1
    35   19   20 ar
    36   21   22 2
    37   21   23 1
@<TRIPOS>MOLECULE
ZINC00601283
   40    42     0     0     0
SMALL
USER_CHARGES

@<TRIPOS>ATOM
      1 C1         -0.0182    1.5027    0.0102 C.3       1 <0>        -0.0883
      2 C2          0.0021   -0.0042    0.0020 C.2       1 <0>         0.0711
      3 C3          0.0074   -0.7679   -1.0995 C.2       1 <0>        -0.0782
      4 C4          0.0293   -2.1662   -0.6567 C.ar      1 <0>        -0.0368
      5 C5          0.0428   -3.3917   -1.3243 C.ar      1 <0>        -0.0938
      6 C6          0.0625   -4.5656   -0.5961 C.ar      1 <0>         0.0956
      7 C7          0.0688   -4.5275    0.7953 C.ar      1 <0>        -0.1804
      8 C8          0.0551   -3.3226    1.4635 C.ar      1 <0>        -0.0946
      9 C9          0.0357   -2.1316    0.7482 C.ar      1 <0>         0.0803
     10 N1          0.0240   -0.7990    1.1223 N.am      1 <0>        -0.5123
     11 C10         0.0297   -0.3494    2.3928 C.2       1 <0>         0.6115
     12 O1         -1.0174   -0.0751    2.9450 O.2       1 <0>        -0.4412
     13 C11         1.3084   -0.1902    3.1139 C.ar      1 <0>        -0.1622
     14 C12         2.5190   -0.3985    2.4491 C.ar      1 <0>        -0.0360
     15 C13         3.7097   -0.2483    3.1279 C.ar      1 <0>        -0.1193
     16 C14         3.7070    0.1084    4.4664 C.ar      1 <0>         0.0005
     17 C15         2.5096    0.3160    5.1314 C.ar      1 <0>        -0.1284
     18 C16         1.3125    0.1750    4.4621 C.ar      1 <0>        -0.0426
     19 Cl1         5.2103    0.2955    5.3141 Cl        1 <0>        -0.0622
     20 O2          0.0753   -5.7626   -1.2410 O.3       1 <0>        -0.3182
     21 C17         0.0954   -6.9375   -0.4278 C.3       1 <0>         0.0304
     22 C18        -0.0069   -0.2812   -2.5257 C.3       1 <0>        -0.1253
     23 C19         1.4090   -0.0991   -3.0085 C.2       1 <0>         0.4982
     24 O3          2.3431   -0.3421   -2.2636 O.co2     1 <0>        -0.6866
     25 O4          1.6204    0.2911   -4.1441 O.co2     1 <0>        -0.7049
     26 H1          1.0044    1.8799    0.0025 H         1 <0>         0.0804
     27 H2         -0.5453    1.8638   -0.8729 H         1 <0>         0.0881
     28 H3         -0.5284    1.8543    0.9070 H         1 <0>         0.0568
     29 H4          0.0376   -3.4222   -2.4038 H         1 <0>         0.1332
     30 H5          0.0842   -5.4504    1.3560 H         1 <0>         0.1288
     31 H6          0.0595   -3.3039    2.5434 H         1 <0>         0.1161
     32 H7          2.5224   -0.6770    1.4056 H         1 <0>         0.1519
     33 H8          4.6464   -0.4095    2.6151 H         1 <0>         0.1453
     34 H9          2.5140    0.5936    6.1751 H         1 <0>         0.1420
     35 H10         0.3798    0.3418    4.9804 H         1 <0>         0.1449
     36 H11         0.9887   -6.9318    0.1968 H         1 <0>         0.0516
     37 H12        -0.7911   -6.9558    0.2062 H         1 <0>         0.0506
     38 H13         0.1040   -7.8210   -1.0660 H         1 <0>         0.0947
     39 H14        -0.5139   -1.0132   -3.1543 H         1 <0>         0.0698
     40 H15        -0.5343    0.6712   -2.5793 H         1 <0>         0.0692
@<TRIPOS>BOND
     1    1    2 1
     2    1   26 1
     3    1   27 1
     4    1   28 1
     5    2   10 1
     6    2    3 2
     7    3    4 1
     8    3   22 1
     9    4    9 ar
    10    4    5 ar
    11    5    6 ar
    12    5   29 1
    13    6    7 ar
    14    6   20 1
    15    7    8 ar
    16    7   30 1
    17    8    9 ar
    18    8   31 1
    19    9   10 1
    20   10   11 am
    21   11   12 2
    22   11   13 1
    23   13   18 ar
    24   13   14 ar
    25   14   15 ar
    26   14   32 1
    27   15   16 ar
    28   15   33 1
    29   16   17 ar
    30   16   19 1
    31   17   18 ar
    32   17   34 1
    33   18   35 1
    34   20   21 1
    35   21   36 1
    36   21   37 1
    37   21   38 1
    38   22   23 1
    39   22   39 1
    40   22   40 1
    41   23   24 2
    42   23   25 1
@<TRIPOS>MOLECULE
ZINC03791739
   39    40     0     0     0
SMALL
USER_CHARGES

@<TRIPOS>ATOM
      1 C1          0.3342    2.3833    0.0426 C.3       1 <0>        -0.6679
      2 S1          0.0362    0.5945    0.0858 S.o2      1 <0>         2.6052
      3 O1          0.7948   -0.0031    1.1282 O.2       1 <0>        -0.9432
      4 O2         -1.3533    0.3265   -0.0441 O.2       1 <0>        -0.9389
      5 N1          0.7104    0.0168   -1.3120 N.pl3     1 <0>        -1.0450
      6 C2          2.0741    0.2082   -1.5624 C.ar      1 <0>         0.1782
      7 C3          2.9850    0.1716   -0.5167 C.ar      1 <0>        -0.1418
      8 C4          4.3313    0.3609   -0.7665 C.ar      1 <0>        -0.0551
      9 C5          4.7733    0.5869   -2.0568 C.ar      1 <0>        -0.0270
     10 C6          3.8710    0.6252   -3.1041 C.ar      1 <0>        -0.1307
     11 C7          2.5211    0.4303   -2.8631 C.ar      1 <0>         0.1189
     12 O3          1.6333    0.4612   -3.8930 O.3       1 <0>        -0.2967
     13 C8          2.1434    0.8205   -5.1786 C.3       1 <0>         0.0810
     14 C9          2.7350   -0.4170   -5.8565 C.3       1 <0>        -0.1482
     15 C10         3.2811   -0.0324   -7.2330 C.3       1 <0>        -0.1185
     16 C11         2.1466    0.5273   -8.0936 C.3       1 <0>        -0.1253
     17 C12         1.5550    1.7647   -7.4157 C.3       1 <0>        -0.1174
     18 C13         1.0089    1.3801   -6.0392 C.3       1 <0>        -0.1134
     19 N2          6.2160    0.7889   -2.3180 N.pl3     1 <0>         0.0336
     20 O4          7.0063    0.7562   -1.4036 O.2       1 <0>        -0.1487
     21 O5          6.6044    0.9867   -3.4457 O.3       1 <0>        -0.1578
     22 H1          1.4071    2.5721    0.0045 H         1 <0>         0.1303
     23 H2         -0.1414    2.8097   -0.8406 H         1 <0>         0.1349
     24 H3         -0.0840    2.8431    0.9381 H         1 <0>         0.1402
     25 H4          0.1603   -0.4541   -1.9573 H         1 <0>         0.4368
     26 H5          2.6424   -0.0044    0.4923 H         1 <0>         0.1899
     27 H6          5.0395    0.3326    0.0483 H         1 <0>         0.1655
     28 H7          4.2196    0.8023   -4.1108 H         1 <0>         0.1655
     29 H8          2.9192    1.5774   -5.0632 H         1 <0>         0.0785
     30 H9          3.5432   -0.8157   -5.2434 H         1 <0>         0.0688
     31 H10         1.9592   -1.1739   -5.9720 H         1 <0>         0.0787
     32 H11         4.0569    0.7245   -7.1176 H         1 <0>         0.0677
     33 H12         3.7026   -0.9140   -7.7160 H         1 <0>         0.0725
     34 H13         2.5357    0.8013   -9.0743 H         1 <0>         0.0692
     35 H14         1.3708   -0.2296   -8.2091 H         1 <0>         0.0661
     36 H15         2.3308    2.5216   -7.3003 H         1 <0>         0.0668
     37 H16         0.7468    2.1634   -8.0288 H         1 <0>         0.0749
     38 H17         0.2331    0.6232   -6.1547 H         1 <0>         0.0779
     39 H18         0.5874    2.2617   -5.5563 H         1 <0>         0.0740
@<TRIPOS>BOND
     1    1    2 1
     2    1   22 1
     3    1   23 1
     4    1   24 1
     5    2    3 2
     6    2    4 2
     7    2    5 1
     8    5    6 1
     9    5   25 1
    10    6   11 ar
    11    6    7 ar
    12    7    8 ar
    13    7   26 1
    14    8    9 ar
    15    8   27 1
    16    9   10 ar
    17    9   19 1
    18   10   11 ar
    19   10   28 1
    20   11   12 1
    21   12   13 1
    22   13   18 1
    23   13   14 1
    24   13   29 1
    25   14   15 1
    26   14   30 1
    27   14   31 1
    28   15   16 1
    29   15   32 1
    30   15   33 1
    31   16   17 1
    32   16   34 1
    33   16   35 1
    34   17   18 1
    35   17   36 1
    36   17   37 1
    37   18   38 1
    38   18   39 1
    39   19   20 2
    40   19   21 1
@<TRIPOS>MOLECULE
ZINC03791739
   38    39     0     0     0
SMALL
USER_CHARGES

@<TRIPOS>ATOM
      1 C1          0.2127    1.7212    0.2031 C.3       1 <0>        -0.6338
      2 S1         -0.0163   -0.0679    0.0103 S.o2      1 <0>         2.5267
      3 O1          0.6837   -0.7639    1.0325 O.2       1 <0>        -1.0204
      4 O2         -1.3799   -0.3603   -0.2620 O.2       1 <0>        -1.0203
      5 N1          0.7853   -0.4514   -1.3871 N.2       1 <0>        -1.0560
      6 C2          0.8097   -1.7759   -1.8389 C.ar      1 <0>         0.3189
      7 C3          0.1583   -2.7679   -1.1206 C.ar      1 <0>        -0.2458
      8 C4          0.1839   -4.0752   -1.5688 C.ar      1 <0>        -0.0134
      9 C5          0.8576   -4.3975   -2.7323 C.ar      1 <0>        -0.1308
     10 C6          1.5096   -3.4140   -3.4533 C.ar      1 <0>        -0.1230
     11 C7          1.4835   -2.1006   -3.0143 C.ar      1 <0>         0.0762
     12 O3          2.1189   -1.1312   -3.7259 O.3       1 <0>        -0.2762
     13 C8          2.8930   -1.5537   -4.8503 C.3       1 <0>         0.0791
     14 C9          1.9835   -1.6908   -6.0730 C.3       1 <0>        -0.1456
     15 C10         2.8123   -2.1432   -7.2769 C.3       1 <0>        -0.1168
     16 C11         3.9011   -1.1076   -7.5647 C.3       1 <0>        -0.1211
     17 C12         4.8105   -0.9704   -6.3420 C.3       1 <0>        -0.1155
     18 C13         3.9817   -0.5181   -5.1381 C.3       1 <0>        -0.1114
     19 N2          0.8815   -5.7991   -3.2072 N.pl3     1 <0>         0.0677
     20 O4          0.3123   -6.6604   -2.5779 O.2       1 <0>        -0.2097
     21 O5          1.4701   -6.0828   -4.2244 O.3       1 <0>        -0.2116
     22 H1          1.2769    1.9458    0.2741 H         1 <0>         0.1187
     23 H2         -0.2107    2.2366   -0.6590 H         1 <0>         0.1188
     24 H3         -0.2907    2.0563    1.1100 H         1 <0>         0.1065
     25 H4         -0.3684   -2.5189   -0.2112 H         1 <0>         0.1297
     26 H5         -0.3233   -4.8468   -1.0086 H         1 <0>         0.1346
     27 H6          2.0352   -3.6693   -4.3616 H         1 <0>         0.1416
     28 H7          3.3556   -2.5162   -4.6319 H         1 <0>         0.0672
     29 H8          1.2078   -2.4287   -5.8680 H         1 <0>         0.0689
     30 H9          1.5208   -0.7284   -6.2915 H         1 <0>         0.0722
     31 H10         3.2750   -3.1057   -7.0585 H         1 <0>         0.0645
     32 H11         2.1644   -2.2409   -8.1480 H         1 <0>         0.0642
     33 H12         4.4915   -1.4298   -8.4224 H         1 <0>         0.0609
     34 H13         3.4384   -0.1451   -7.7832 H         1 <0>         0.0625
     35 H14         5.2732   -1.9329   -6.1236 H         1 <0>         0.0634
     36 H15         5.5862   -0.2326   -6.5471 H         1 <0>         0.0662
     37 H16         3.5191    0.4444   -5.3566 H         1 <0>         0.0724
     38 H17         4.6297   -0.4204   -4.2671 H         1 <0>         0.0707
@<TRIPOS>BOND
     1    1    2 1
     2    1   22 1
     3    1   23 1
     4    1   24 1
     5    2    3 2
     6    2    4 2
     7    2    5 1
     8    5    6 1
     9    6   11 ar
    10    6    7 ar
    11    7    8 ar
    12    7   25 1
    13    8    9 ar
    14    8   26 1
    15    9   10 ar
    16    9   19 1
    17   10   11 ar
    18   10   27 1
    19   11   12 1
    20   12   13 1
    21   13   18 1
    22   13   14 1
    23   13   28 1
    24   14   15 1
    25   14   29 1
    26   14   30 1
    27   15   16 1
    28   15   31 1
    29   15   32 1
    30   16   17 1
    31   16   33 1
    32   16   34 1
    33   17   18 1
    34   17   35 1
    35   17   36 1
    36   18   37 1
    37   18   38 1
    38   19   20 2
    39   19   21 1
@<TRIPOS>MOLECULE
ZINC13761818
   41    43     0     0     0
SMALL
USER_CHARGES

@<TRIPOS>ATOM
      1 C1          1.1568   -0.5872    0.5405 C.ar      1 <0>        -0.0934
      2 C2          2.3470    0.1105    0.5233 C.ar      1 <0>        -0.1058
      3 C3          2.3848    1.4070    0.0090 C.ar      1 <0>        -0.0458
      4 C4          1.2172    1.9895   -0.4851 C.ar      1 <0>        -0.0835
      5 C5          0.0334    1.2812   -0.4622 C.ar      1 <0>        -0.0949
      6 C6          0.0025   -0.0039    0.0491 C.ar      1 <0>        -0.0719
      7 C7         -1.2940   -0.7718    0.0710 C.3       1 <0>         0.1117
      8 O1         -1.9754   -0.5210    1.3017 O.3       1 <0>        -0.5666
      9 C8          3.6574    2.1609   -0.0121 C.2       1 <0>         0.1462
     10 C9          3.7937    3.5206   -0.0044 C.2       1 <0>        -0.2014
     11 C10         5.1574    3.8142   -0.0304 C.2       1 <0>        -0.0037
     12 N1          5.8274    2.6894   -0.0529 N.2       1 <0>        -0.2166
     13 N2          4.9143    1.6272   -0.0367 N.pl3     1 <0>        -0.3172
     14 C11         5.2330    0.2632   -0.0472 C.ar      1 <0>         0.1986
     15 C12         4.5596   -0.6021   -0.8994 C.ar      1 <0>        -0.1315
     16 C13         4.8764   -1.9464   -0.9077 C.ar      1 <0>        -0.0009
     17 C14         5.8627   -2.4310   -0.0682 C.ar      1 <0>        -0.6728
     18 C15         6.5347   -1.5719    0.7819 C.ar      1 <0>         0.0017
     19 C16         6.2268   -0.2256    0.7904 C.ar      1 <0>        -0.1232
     20 S1          6.2635   -4.1467   -0.0815 S.o2      1 <0>         2.7036
     21 O2          6.8404   -4.4388    1.1839 O.2       1 <0>        -0.9568
     22 O3          5.1168   -4.8279   -0.5714 O.2       1 <0>        -0.9572
     23 N3          7.4587   -4.3616   -1.2074 N.pl3     1 <0>        -1.2487
     24 C17         5.7592    5.1959   -0.0322 C.3       1 <0>         0.5582
     25 F1          5.9727    5.6132    1.2859 F         1 <0>        -0.1634
     26 F2          6.9787    5.1724   -0.7173 F         1 <0>        -0.1638
     27 F3          4.8847    6.0845   -0.6669 F         1 <0>        -0.1609
     28 H1          1.1271   -1.5924    0.9343 H         1 <0>         0.1327
     29 H2          3.2474   -0.3457    0.9075 H         1 <0>         0.1269
     30 H3          1.2399    2.9928   -0.8842 H         1 <0>         0.1362
     31 H4         -0.8711    1.7310   -0.8443 H         1 <0>         0.1344
     32 H5         -1.9196   -0.4522   -0.7624 H         1 <0>         0.0595
     33 H6         -1.0863   -1.8381   -0.0186 H         1 <0>         0.0596
     34 H7         -2.8202   -0.9842    1.3850 H         1 <0>         0.3849
     35 H8          2.9887    4.2402    0.0175 H         1 <0>         0.1740
     36 H9          3.7887   -0.2243   -1.5547 H         1 <0>         0.1459
     37 H10         4.3531   -2.6198   -1.5702 H         1 <0>         0.1582
     38 H11         7.3040   -1.9535    1.4368 H         1 <0>         0.1581
     39 H12         6.7553    0.4456    1.4512 H         1 <0>         0.1481
     40 H13         7.7964   -3.6021   -1.7073 H         1 <0>         0.4178
     41 H14         7.8212   -5.2471   -1.3669 H         1 <0>         0.4235
@<TRIPOS>BOND
     1    1    6 ar
     2    1    2 ar
     3    1   28 1
     4    2    3 ar
     5    2   29 1
     6    3    4 ar
     7    3    9 1
     8    4    5 ar
     9    4   30 1
    10    5    6 ar
    11    5   31 1
    12    6    7 1
    13    7    8 1
    14    7   32 1
    15    7   33 1
    16    8   34 1
    17    9   13 1
    18    9   10 2
    19   10   11 1
    20   10   35 1
    21   11   12 2
    22   11   24 1
    23   12   13 1
    24   13   14 1
    25   14   19 ar
    26   14   15 ar
    27   15   16 ar
    28   15   36 1
    29   16   17 ar
    30   16   37 1
    31   17   18 ar
    32   17   20 1
    33   18   19 ar
    34   18   38 1
    35   19   39 1
    36   20   21 2
    37   20   22 2
    38   20   23 1
    39   23   40 1
    40   23   41 1
    41   24   25 1
    42   24   26 1
    43   24   27 1
@<TRIPOS>MOLECULE
ZINC01566147
   41    42     0     0     0
SMALL
USER_CHARGES
4-allyl-2-(3-allyl-4-methoxy-phenyl)-phenol
@<TRIPOS>ATOM
      1 C1         -3.6086    3.0026    0.0508 C.3       1 <0>         0.0256
      2 O1         -2.4223    3.7992    0.0437 O.3       1 <0>        -0.3122
      3 C2         -1.2352    3.1380    0.0297 C.ar      1 <0>         0.1332
      4 C3         -1.2156    1.7497    0.0173 C.ar      1 <0>        -0.2035
      5 C4         -0.0126    1.0758    0.0080 C.ar      1 <0>        -0.0682
      6 C5          1.1847    1.7900    0.0004 C.ar      1 <0>        -0.0735
      7 C6          1.1617    3.1835    0.0076 C.ar      1 <0>        -0.0570
      8 C7         -0.0448    3.8518    0.0222 C.ar      1 <0>        -0.1062
      9 C8         -0.0707    5.3586    0.0295 C.3       1 <0>        -0.0459
     10 C9         -0.1896    5.8521    1.4485 C.2       1 <0>        -0.1413
     11 C10         0.6914    6.6968    1.9242 C.2       1 <0>        -0.1969
     12 C11         2.4804    1.0682   -0.0159 C.ar      1 <0>        -0.0633
     13 C12         2.7236    0.0464    0.8992 C.ar      1 <0>        -0.0904
     14 C13         3.9308   -0.6222    0.8801 C.ar      1 <0>        -0.0837
     15 C14         4.9016   -0.2812   -0.0453 C.ar      1 <0>        -0.0979
     16 C15         4.6707    0.7309   -0.9575 C.ar      1 <0>        -0.1396
     17 C16         3.4609    1.4065   -0.9532 C.ar      1 <0>         0.1120
     18 O2          3.2305    2.3979   -1.8531 O.3       1 <0>        -0.4907
     19 C17         4.1930   -1.7271    1.8708 C.3       1 <0>        -0.0552
     20 C18         3.7419   -3.0416    1.2881 C.2       1 <0>        -0.1502
     21 C19         4.5794   -4.0460    1.2117 C.2       1 <0>        -0.1900
     22 H1         -3.6157    2.3693    0.9379 H         1 <0>         0.0558
     23 H2         -4.4831    3.6531    0.0619 H         1 <0>         0.1013
     24 H3         -3.6319    2.3776   -0.8419 H         1 <0>         0.0561
     25 H4         -2.1435    1.1970    0.0187 H         1 <0>         0.1307
     26 H5          0.0021   -0.0041    0.0020 H         1 <0>         0.1256
     27 H6          2.0876    3.7395    0.0021 H         1 <0>         0.1237
     28 H7          0.8502    5.7399   -0.4118 H         1 <0>         0.0754
     29 H8         -0.9242    5.7101   -0.5502 H         1 <0>         0.0867
     30 H9         -1.0012    5.5093    2.0732 H         1 <0>         0.1079
     31 H10         0.6062    7.0505    2.9410 H         1 <0>         0.0974
     32 H11         1.5030    7.0396    1.2994 H         1 <0>         0.0959
     33 H12         1.9681   -0.2226    1.6225 H         1 <0>         0.1274
     34 H13         5.8442   -0.8083   -0.0544 H         1 <0>         0.1266
     35 H14         5.4321    0.9925   -1.6773 H         1 <0>         0.1309
     36 H15         3.4998    3.2755   -1.5491 H         1 <0>         0.3865
     37 H16         5.2598   -1.7735    2.0894 H         1 <0>         0.0786
     38 H17         3.6420   -1.5290    2.7902 H         1 <0>         0.0835
     39 H18         2.7281   -3.1557    0.9336 H         1 <0>         0.1091
     40 H19         5.5931   -3.9320    1.5662 H         1 <0>         0.0972
     41 H20         4.2561   -4.9881    0.7942 H         1 <0>         0.0988
@<TRIPOS>BOND
     1    1    2 1
     2    1   22 1
     3    1   23 1
     4    1   24 1
     5    2    3 1
     6    3    8 ar
     7    3    4 ar
     8    4    5 ar
     9    4   25 1
    10    5    6 ar
    11    5   26 1
    12    6    7 ar
    13    6   12 1
    14    7    8 ar
    15    7   27 1
    16    8    9 1
    17    9   10 1
    18    9   28 1
    19    9   29 1
    20   10   11 2
    21   10   30 1
    22   11   31 1
    23   11   32 1
    24   12   17 ar
    25   12   13 ar
    26   13   14 ar
    27   13   33 1
    28   14   15 ar
    29   14   19 1
    30   15   16 ar
    31   15   34 1
    32   16   17 ar
    33   16   35 1
    34   17   18 1
    35   18   36 1
    36   19   20 1
    37   19   37 1
    38   19   38 1
    39   20   21 2
    40   20   39 1
    41   21   40 1
    42   21   41 1
