@<TRIPOS>MOLECULE
ZINC26974195
   47    48     0     0     0
SMALL
USER_CHARGES
(5Z)-2-amino-5-[(3,5-ditert-butyl-4-hydroxy-phenyl)methylene]thiazol-4-one
@<TRIPOS>ATOM
      1 C1         -1.0652   -0.3967    0.5886 C.3       1 <0>        -0.1510
      2 C2         -1.5944    0.2405    1.8750 C.3       1 <0>        -0.0141
      3 C3         -1.9857    1.6940    1.6006 C.3       1 <0>        -0.1429
      4 C4         -2.8206   -0.5347    2.3612 C.3       1 <0>        -0.1426
      5 C5         -0.5224    0.2001    2.9334 C.ar      1 <0>        -0.1139
      6 C6          0.7038   -0.3565    2.6483 C.ar      1 <0>        -0.0470
      7 C7          1.6992   -0.3934    3.6330 C.ar      1 <0>        -0.1352
      8 C8          1.4404    0.1370    4.9031 C.ar      1 <0>        -0.0552
      9 C9          0.2106    0.6913    5.1772 C.ar      1 <0>        -0.1674
     10 C10        -0.7718    0.7303    4.1942 C.ar      1 <0>         0.2007
     11 O1         -1.9808    1.2834    4.4681 O.3       1 <0>        -0.5014
     12 C11        -0.0691    1.2628    6.5433 C.3       1 <0>        -0.0289
     13 C12         1.1692    1.1011    7.4272 C.3       1 <0>        -0.1468
     14 C13        -0.4130    2.7481    6.4140 C.3       1 <0>        -0.1557
     15 C14        -1.2476    0.5196    7.1755 C.3       1 <0>        -0.1556
     16 C15         3.0092   -0.9854    3.3346 C.2       1 <0>         0.0644
     17 C16         4.0266   -0.8654    4.2246 C.2       1 <0>        -0.2449
     18 C17         5.3625   -1.5063    4.2311 C.2       1 <0>         0.5511
     19 O2          5.7108   -2.2781    3.3520 O.2       1 <0>        -0.4701
     20 N1          6.1524   -1.1974    5.2360 N.2       1 <0>        -0.6728
     21 C18         5.7873   -0.3618    6.1953 C.2       1 <0>         0.4810
     22 S1          4.1349    0.1169    5.7152 S.3       1 <0>        -0.0557
     23 N2          6.5056    0.0429    7.2891 N.pl3     1 <0>        -0.7840
     24 H1         -0.7839   -1.4417    0.7859 H         1 <0>         0.0593
     25 H2         -0.1836    0.1607    0.2391 H         1 <0>         0.0591
     26 H3         -1.8477   -0.3672   -0.1840 H         1 <0>         0.0611
     27 H4         -2.3662    2.1521    2.5255 H         1 <0>         0.0713
     28 H5         -2.7681    1.7235    0.8280 H         1 <0>         0.0558
     29 H6         -1.1041    2.2513    1.2511 H         1 <0>         0.0508
     30 H7         -3.2010   -0.0765    3.2861 H         1 <0>         0.0707
     31 H8         -2.5393   -1.5797    2.5585 H         1 <0>         0.0510
     32 H9         -3.6031   -0.5052    1.5886 H         1 <0>         0.0559
     33 H10         0.8982   -0.7638    1.6671 H         1 <0>         0.1409
     34 H11         2.2045    0.1115    5.6660 H         1 <0>         0.1418
     35 H12        -2.1803    1.7035    5.4650 H         1 <0>         0.4241
     36 H13         0.9649    1.5183    8.4243 H         1 <0>         0.0641
     37 H14         2.0164    1.6355    6.9727 H         1 <0>         0.0625
     38 H15         1.4165    0.0333    7.5201 H         1 <0>         0.0627
     39 H16        -0.6172    3.1653    7.4111 H         1 <0>         0.0698
     40 H17        -1.3033    2.8643    5.7785 H         1 <0>         0.0594
     41 H18         0.4343    3.2824    5.9594 H         1 <0>         0.0669
     42 H19        -1.4518    0.9368    8.1726 H         1 <0>         0.0696
     43 H20        -1.0004   -0.5482    7.2683 H         1 <0>         0.0665
     44 H21        -2.1379    0.6360    6.5400 H         1 <0>         0.0592
     45 H22         3.1660   -1.5262    2.3896 H         1 <0>         0.1622
     46 H23         6.0634    0.7496    8.0067 H         1 <0>         0.4535
     47 H24         7.5246   -0.3388    7.4499 H         1 <0>         0.4498
@<TRIPOS>BOND
     1    1    2 1
     2    1   24 1
     3    1   25 1
     4    1   26 1
     5    2    3 1
     6    2    4 1
     7    2    5 1
     8    3   27 1
     9    3   28 1
    10    3   29 1
    11    4   30 1
    12    4   31 1
    13    4   32 1
    14    5   10 ar
    15    5    6 ar
    16    6    7 ar
    17    6   33 1
    18    7    8 ar
    19    7   16 1
    20    8    9 ar
    21    8   34 1
    22    9   10 ar
    23    9   12 1
    24   10   11 1
    25   11   35 1
    26   12   13 1
    27   12   14 1
    28   12   15 1
    29   13   36 1
    30   13   37 1
    31   13   38 1
    32   14   39 1
    33   14   40 1
    34   14   41 1
    35   15   42 1
    36   15   43 1
    37   15   44 1
    38   16   17 2
    39   16   45 1
    40   17   22 1
    41   17   18 1
    42   18   19 2
    43   18   20 1
    44   20   21 2
    45   21   22 1
    46   21   23 1
    47   23   46 1
    48   23   47 1
@<TRIPOS>MOLECULE
ZINC18007687
   29    31     0     0     0
SMALL
USER_CHARGES

@<TRIPOS>ATOM
      1 C1          1.9025    3.4154   -2.8069 C.2       1 <0>        -0.1822
      2 C2          2.1917    3.1284   -1.4938 C.2       1 <0>        -0.1077
      3 C3          3.1899    2.1885   -1.2887 C.2       1 <0>        -0.2282
      4 S1          3.6517    1.7741   -2.9599 S.3       1 <0>         0.2414
      5 C4          2.5907    2.7803   -3.7871 C.2       1 <0>        -0.2625
      6 C5          3.7269    1.6700   -0.0250 C.2       1 <0>         0.5575
      7 O1          3.3541    2.1425    1.0353 O.2       1 <0>        -0.4632
      8 C6          4.7105    0.5848   -0.0376 C.2       1 <0>        -0.4597
      9 C7          6.1796    0.7228    0.0078 C.ar      1 <0>         0.0233
     10 C8          7.0407    1.8152    0.0710 C.ar      1 <0>        -0.1172
     11 C9          8.4047    1.6093    0.1006 C.ar      1 <0>        -0.0332
     12 C10         8.9170    0.3205    0.0675 C.ar      1 <0>        -0.1429
     13 C11         8.0731   -0.7686    0.0049 C.ar      1 <0>        -0.0989
     14 C12         6.6971   -0.5803   -0.0256 C.ar      1 <0>         0.0804
     15 N1          5.6254   -1.4612   -0.0873 N.am      1 <0>        -0.5216
     16 C13         4.4464   -0.7722   -0.0884 C.2       1 <0>         0.4918
     17 O2          3.2157   -1.3282   -0.1348 O.3       1 <0>        -0.6719
     18 C14         5.7333   -2.8038   -0.1334 C.2       1 <0>         0.7415
     19 O3          5.7530   -3.4476    0.8971 O.2       1 <0>        -0.5370
     20 N2          5.8192   -3.4325   -1.3225 N.am      1 <0>        -0.8414
     21 Cl1         9.4832    2.9674    0.1788 Cl        1 <0>        -0.0954
     22 H1          1.1345    4.1334   -3.0541 H         1 <0>         0.1269
     23 H2          1.6745    3.6052   -0.6743 H         1 <0>         0.1420
     24 H3          2.4819    2.8950   -4.8555 H         1 <0>         0.1801
     25 H4          6.6428    2.8189    0.0965 H         1 <0>         0.1221
     26 H5          9.9861    0.1687    0.0907 H         1 <0>         0.1249
     27 H6          8.4820   -1.7679   -0.0200 H         1 <0>         0.1167
     28 H7          5.8035   -2.9186   -2.1450 H         1 <0>         0.4038
     29 H8          5.8969   -4.3988   -1.3557 H         1 <0>         0.4105
@<TRIPOS>BOND
     1    1    5 2
     2    1    2 1
     3    1   22 1
     4    2    3 2
     5    2   23 1
     6    3    4 1
     7    3    6 1
     8    4    5 1
     9    5   24 1
    10    6    7 2
    11    6    8 1
    12    8   16 2
    13    8    9 1
    14    9   14 ar
    15    9   10 ar
    16   10   11 ar
    17   10   25 1
    18   11   12 ar
    19   11   21 1
    20   12   13 ar
    21   12   26 1
    22   13   14 ar
    23   13   27 1
    24   14   15 1
    25   15   16 1
    26   15   18 am
    27   16   17 1
    28   18   19 2
    29   18   20 am
    30   20   28 1
    31   20   29 1
