@<TRIPOS>MOLECULE
ZINC05115872
   32    33     0     0     0
SMALL
USER_CHARGES
2-amino-7-(1,2-dihydroxypropyl)-5,6,7,8-tetrahydro-1H-pteridin-4-one
@<TRIPOS>ATOM
      1 C1         -0.7527    1.5927   -1.2315 C.3       1 <0>        -0.1840
      2 C2         -0.0127    1.0858    0.0080 C.3       1 <0>         0.0744
      3 H1          0.0021   -0.0041    0.0020 H         1 <0>         0.0932
      4 C3          1.4227    1.6154   -0.0028 C.3       1 <0>         0.0724
      5 H2          1.4079    2.7053    0.0031 H         1 <0>         0.1223
      6 C4          2.1627    1.1086    1.2367 C.3       1 <0>         0.1339
      7 H3          1.6688    1.4719    2.1378 H         1 <0>         0.1004
      8 C5          3.6207    1.5891    1.2079 C.3       1 <0>         0.0446
      9 N1          4.3069    1.0937    2.4058 N.pl3     1 <0>        -0.6007
     10 C6          4.1593   -0.2939    2.5847 C.2       1 <0>        -0.1331
     11 C7          3.1329   -0.9953    2.0261 C.2       1 <0>         0.3828
     12 N2          3.0383   -2.3456    2.2499 N.pl3     1 <0>        -0.6449
     13 H4          2.2852   -2.8665    1.8480 H         1 <0>         0.4175
     14 C8          3.9670   -2.9772    3.0174 C.2       1 <0>         0.6606
     15 N3          4.9668   -2.3147    3.5581 N.2       1 <0>        -0.6293
     16 C9          5.1037   -0.9937    3.3726 C.2       1 <0>         0.5416
     17 O1          6.0411   -0.3958    3.8828 O.2       1 <0>        -0.5241
     18 N4          3.8594   -4.3276    3.2307 N.pl3     1 <0>        -0.8219
     19 N5          2.1883   -0.3635    1.2381 N.pl3     1 <0>        -0.7334
     20 O2          2.0915    1.1546   -1.1786 O.3       1 <0>        -0.5417
     21 O3         -0.6816    1.5467    1.1837 O.3       1 <0>        -0.5531
     22 H5         -0.2425    1.2411   -2.1283 H         1 <0>         0.0745
     23 H6         -1.7753    1.2154   -1.2238 H         1 <0>         0.0668
     24 H7         -0.7675    2.6825   -1.2255 H         1 <0>         0.0633
     25 H8          4.1152    1.2018    0.3171 H         1 <0>         0.0540
     26 H9          3.6458    2.6787    1.1971 H         1 <0>         0.0971
     27 H10         5.2813    1.3557    2.3987 H         1 <0>         0.3705
     28 H11         4.5173   -4.7863    3.7764 H         1 <0>         0.4323
     29 H12         3.1255   -4.8241    2.8360 H         1 <0>         0.4108
     30 H13         1.5614   -0.8747    0.7028 H         1 <0>         0.3984
     31 H14         2.1422    0.1915   -1.2503 H         1 <0>         0.3739
     32 H15        -0.7322    2.5097    1.2555 H         1 <0>         0.3812
@<TRIPOS>BOND
     1    1    2 1
     2    1   22 1
     3    1   23 1
     4    1   24 1
     5    2    3 1
     6    2    4 1
     7    2   21 1
     8    4    5 1
     9    4    6 1
    10    4   20 1
    11    6    7 1
    12    6   19 1
    13    6    8 1
    14    8    9 1
    15    8   25 1
    16    8   26 1
    17    9   10 1
    18    9   27 1
    19   10   16 1
    20   10   11 2
    21   11   12 1
    22   11   19 1
    23   12   13 1
    24   12   14 1
    25   14   15 2
    26   14   18 1
    27   15   16 1
    28   16   17 2
    29   18   28 1
    30   18   29 1
    31   19   30 1
    32   20   31 1
    33   21   32 1
@<TRIPOS>MOLECULE
ZINC05115878
   32    33     0     0     0
SMALL
USER_CHARGES
2-amino-7-(1,2-dihydroxypropyl)-5,6,7,8-tetrahydro-1H-pteridin-4-one
@<TRIPOS>ATOM
      1 C1         -1.0541    2.1290   -6.0513 C.3       1 <0>        -0.1828
      2 C2         -0.1631    1.7110   -4.8799 C.3       1 <0>         0.0698
      3 H1          0.7230    2.3451   -4.8531 H         1 <0>         0.1008
      4 C3         -0.9386    1.8626   -3.5698 C.3       1 <0>         0.0740
      5 H2         -1.1628    2.9157   -3.4001 H         1 <0>         0.1169
      6 C4         -0.0933    1.3282   -2.4119 C.3       1 <0>         0.0975
      7 H3          0.1193    0.2700   -2.5642 H         1 <0>         0.0852
      8 C5         -0.8401    1.5253   -1.0851 C.3       1 <0>         0.0496
      9 N1         -0.0116    1.0048    0.0076 N.pl3     1 <0>        -0.5904
     10 C6          1.2948    1.5268   -0.0021 C.2       1 <0>        -0.1505
     11 C7          1.8662    2.0387   -1.1286 C.2       1 <0>         0.3949
     12 N2          3.1492    2.5217   -1.0742 N.pl3     1 <0>        -0.6491
     13 H4          3.5779    2.8932   -1.8977 H         1 <0>         0.4162
     14 C8          3.8392    2.4962    0.0977 C.2       1 <0>         0.6618
     15 N3          3.2988    2.0112    1.1948 N.2       1 <0>        -0.6297
     16 C9          2.0496    1.5234    1.1948 C.2       1 <0>         0.5490
     17 O1          1.5646    1.0770    2.2253 O.2       1 <0>        -0.5104
     18 N4          5.1200    2.9850    0.1365 N.pl3     1 <0>        -0.8223
     19 N5          1.1667    2.0843   -2.3207 N.pl3     1 <0>        -0.7248
     20 O2         -2.1586    1.1228   -3.6500 O.3       1 <0>        -0.5387
     21 O3          0.2318    0.3475   -5.0446 O.3       1 <0>        -0.5552
     22 H5         -1.3553    3.1690   -5.9257 H         1 <0>         0.0689
     23 H6         -0.5016    2.0209   -6.9847 H         1 <0>         0.0664
     24 H7         -1.9402    1.4948   -6.0782 H         1 <0>         0.0697
     25 H8         -1.7864    0.9850   -1.1150 H         1 <0>         0.1028
     26 H9         -1.0287    2.5870   -0.9264 H         1 <0>         0.0842
     27 H10         0.0021   -0.0041    0.0020 H         1 <0>         0.3505
     28 H11         5.6194    2.9712    0.9680 H         1 <0>         0.4325
     29 H12         5.5264    3.3446   -0.6675 H         1 <0>         0.4104
     30 H13         1.4961    2.5991   -3.0739 H         1 <0>         0.4017
     31 H14        -2.0350    0.1756   -3.8004 H         1 <0>         0.3760
     32 H15        -0.5076   -0.2749   -5.0770 H         1 <0>         0.3752
@<TRIPOS>BOND
     1    1    2 1
     2    1   22 1
     3    1   23 1
     4    1   24 1
     5    2    3 1
     6    2    4 1
     7    2   21 1
     8    4    5 1
     9    4    6 1
    10    4   20 1
    11    6    7 1
    12    6   19 1
    13    6    8 1
    14    8    9 1
    15    8   25 1
    16    8   26 1
    17    9   10 1
    18    9   27 1
    19   10   16 1
    20   10   11 2
    21   11   12 1
    22   11   19 1
    23   12   13 1
    24   12   14 1
    25   14   15 2
    26   14   18 1
    27   15   16 1
    28   16   17 2
    29   18   28 1
    30   18   29 1
    31   19   30 1
    32   20   31 1
    33   21   32 1
@<TRIPOS>MOLECULE
ZINC05115957
   32    33     0     0     0
SMALL
USER_CHARGES
2-amino-7-(1,2-dihydroxypropyl)-5,6,7,8-tetrahydro-1H-pteridin-4-one
@<TRIPOS>ATOM
      1 C1         -2.8255    1.2766   -2.6024 C.3       1 <0>        -0.1828
      2 C2         -2.1610    0.9592   -1.2613 C.3       1 <0>         0.0707
      3 H1         -2.7725    1.3546   -0.4502 H         1 <0>         0.0692
      4 C3         -0.7738    1.6028   -1.2145 C.3       1 <0>         0.1158
      5 H2         -0.8729    2.6857   -1.2898 H         1 <0>         0.1164
      6 C4         -0.0894    1.2439    0.1060 C.3       1 <0>         0.1312
      7 H3         -0.0902    0.1625    0.2422 H         1 <0>         0.1001
      8 C5         -0.8204    1.9185    1.2757 C.3       1 <0>         0.0412
      9 N1         -0.1477    1.5558    2.5277 N.pl3     1 <0>        -0.5971
     10 C6          1.2373    1.8003    2.4937 C.2       1 <0>        -0.1431
     11 C7          1.9334    1.8865    1.3252 C.2       1 <0>         0.3874
     12 N2          3.2859    2.1141    1.3611 N.pl3     1 <0>        -0.6448
     13 H4          3.8048    2.1734    0.5083 H         1 <0>         0.4186
     14 C8          3.9224    2.2592    2.5544 C.2       1 <0>         0.6604
     15 N3          3.2630    2.1847    3.6904 N.2       1 <0>        -0.6299
     16 C9          1.9408    1.9614    3.7108 C.2       1 <0>         0.5425
     17 O1          1.3454    1.8969    4.7775 O.2       1 <0>        -0.5263
     18 N4          5.2745    2.4875    2.5737 N.pl3     1 <0>        -0.8220
     19 N5          1.2939    1.7481    0.1068 N.pl3     1 <0>        -0.7287
     20 O2          0.0127    1.1194   -2.3053 O.3       1 <0>        -0.5519
     21 O3         -2.0344   -0.4567   -1.1158 O.3       1 <0>        -0.5665
     22 H5         -3.8138    0.8181   -2.6358 H         1 <0>         0.0619
     23 H6         -2.9221    2.3566   -2.7134 H         1 <0>         0.0673
     24 H7         -2.2140    0.8813   -3.4135 H         1 <0>         0.0723
     25 H8         -0.7943    3.0006    1.1472 H         1 <0>         0.0462
     26 H9         -1.8551    1.5773    1.3051 H         1 <0>         0.0975
     27 H10        -0.5772    2.0171    3.3156 H         1 <0>         0.3697
     28 H11         5.7366    2.5925    3.4201 H         1 <0>         0.4321
     29 H12         5.7688    2.5440    1.7410 H         1 <0>         0.4109
     30 H13         1.7430    1.9766   -0.7221 H         1 <0>         0.4081
     31 H14         0.1424    0.1612   -2.3024 H         1 <0>         0.3864
     32 H15        -2.8768   -0.9311   -1.1362 H         1 <0>         0.3875
@<TRIPOS>BOND
     1    1    2 1
     2    1   22 1
     3    1   23 1
     4    1   24 1
     5    2    3 1
     6    2    4 1
     7    2   21 1
     8    4    5 1
     9    4    6 1
    10    4   20 1
    11    6    7 1
    12    6   19 1
    13    6    8 1
    14    8    9 1
    15    8   25 1
    16    8   26 1
    17    9   10 1
    18    9   27 1
    19   10   16 1
    20   10   11 2
    21   11   12 1
    22   11   19 1
    23   12   13 1
    24   12   14 1
    25   14   15 2
    26   14   18 1
    27   15   16 1
    28   16   17 2
    29   18   28 1
    30   18   29 1
    31   19   30 1
    32   20   31 1
    33   21   32 1
@<TRIPOS>MOLECULE
ZINC05115963
   32    33     0     0     0
SMALL
USER_CHARGES
2-amino-7-(1,2-dihydroxypropyl)-5,6,7,8-tetrahydro-1H-pteridin-4-one
@<TRIPOS>ATOM
      1 C1          3.3477    7.8604   -0.2124 C.3       1 <0>        -0.1844
      2 C2          3.5126    6.3935    0.1900 C.3       1 <0>         0.0743
      3 H1          4.4022    5.9834   -0.2880 H         1 <0>         0.0632
      4 C3          2.2825    5.6008   -0.2566 C.3       1 <0>         0.1121
      5 H2          1.3856    6.0524    0.1676 H         1 <0>         0.1160
      6 C4          2.4038    4.1549    0.2286 C.3       1 <0>         0.1338
      7 H3          2.5445    4.1370    1.3093 H         1 <0>         0.1062
      8 C5          3.5899    3.4691   -0.4641 C.3       1 <0>         0.0357
      9 N1          3.6860    2.0868    0.0165 N.pl3     1 <0>        -0.5950
     10 C6          2.4710    1.3858   -0.0920 C.2       1 <0>        -0.1443
     11 C7          1.2667    2.0211   -0.1521 C.2       1 <0>         0.3898
     12 N2          0.1163    1.2787   -0.2402 N.pl3     1 <0>        -0.6448
     13 H4         -0.7717    1.7370   -0.2782 H         1 <0>         0.4185
     14 C8          0.1813   -0.0795   -0.2760 C.2       1 <0>         0.6605
     15 N3          1.3368   -0.7067   -0.2259 N.2       1 <0>        -0.6298
     16 C9          2.4900   -0.0284   -0.1348 C.2       1 <0>         0.5427
     17 O1          3.5542   -0.6299   -0.0887 O.2       1 <0>        -0.5265
     18 N4         -0.9774   -0.8076   -0.3664 N.pl3     1 <0>        -0.8220
     19 N5          1.1915    3.4018   -0.1328 N.pl3     1 <0>        -0.7272
     20 O2          2.1960    5.6190   -1.6828 O.3       1 <0>        -0.5452
     21 O3          3.6491    6.3014    1.6095 O.3       1 <0>        -0.5608
     22 H5          2.4580    8.2705    0.2655 H         1 <0>         0.0657
     23 H6          4.2241    8.4251    0.1057 H         1 <0>         0.0628
     24 H7          3.2436    7.9307   -1.2952 H         1 <0>         0.0741
     25 H8          4.5100    4.0030   -0.2264 H         1 <0>         0.0968
     26 H9          3.4354    3.4706   -1.5431 H         1 <0>         0.0450
     27 H10         4.4315    1.5925   -0.4505 H         1 <0>         0.3694
     28 H11        -1.8337   -0.3536   -0.4043 H         1 <0>         0.4109
     29 H12        -0.9405   -1.7766   -0.3926 H         1 <0>         0.4322
     30 H13         0.3650    3.8602   -0.3512 H         1 <0>         0.4054
     31 H14         2.9621    5.2319   -2.1283 H         1 <0>         0.3780
     32 H15         4.4101    6.7816    1.9634 H         1 <0>         0.3870
@<TRIPOS>BOND
     1    1    2 1
     2    1   22 1
     3    1   23 1
     4    1   24 1
     5    2    3 1
     6    2    4 1
     7    2   21 1
     8    4    5 1
     9    4    6 1
    10    4   20 1
    11    6    7 1
    12    6   19 1
    13    6    8 1
    14    8    9 1
    15    8   25 1
    16    8   26 1
    17    9   10 1
    18    9   27 1
    19   10   16 1
    20   10   11 2
    21   11   12 1
    22   11   19 1
    23   12   13 1
    24   12   14 1
    25   14   15 2
    26   14   18 1
    27   15   16 1
    28   16   17 2
    29   18   28 1
    30   18   29 1
    31   19   30 1
    32   20   31 1
    33   21   32 1
