@<TRIPOS>MOLECULE
ZINC37858692
   37    40     0     0     0
SMALL
USER_CHARGES

@<TRIPOS>ATOM
      1 C1          0.0269    1.2799   -0.9668 C.ar      1 <0>        -0.0753
      2 C2          1.2108    2.0132   -0.9686 C.ar      1 <0>        -0.0973
      3 C3          2.4101    1.4061   -0.7479 C.ar      1 <0>        -0.0938
      4 C4          2.4567    0.0226   -0.5147 C.ar      1 <0>        -0.0622
      5 C5          1.2528   -0.7240   -0.5122 C.ar      1 <0>         0.0009
      6 C6          0.0352   -0.0637   -0.7441 C.ar      1 <0>        -0.1062
      7 C7          1.2900   -2.1132   -0.2795 C.ar      1 <0>        -0.0878
      8 C8          2.4732   -2.7373   -0.0581 C.ar      1 <0>        -0.0669
      9 C9          3.6796   -2.0136   -0.0560 C.ar      1 <0>        -0.1476
     10 C10         3.6813   -0.6374   -0.2832 C.ar      1 <0>         0.1811
     11 O1          4.8431    0.0485   -0.2803 O.3       1 <0>        -0.2137
     12 C11         6.0240   -0.5614   -0.0619 C.2       1 <0>         0.5100
     13 C12         6.1020   -1.9513    0.1750 C.2       1 <0>        -0.3865
     14 C13         4.9612   -2.6969    0.1855 C.2       1 <0>         0.3406
     15 O2          5.0054   -4.0316    0.4105 O.3       1 <0>        -0.4171
     16 N1          7.1259    0.1513   -0.0699 N.pl3     1 <0>        -0.4977
     17 C14         8.4458   -0.4935    0.0163 C.3       1 <0>         0.0537
     18 C15         9.3250    0.0516   -1.1149 C.3       1 <0>         0.0434
     19 O3          9.3127    1.4806   -1.0738 O.3       1 <0>        -0.3613
     20 C16         8.0240    2.0611   -1.2883 C.3       1 <0>         0.0446
     21 C17         7.0783    1.6186   -0.1716 C.3       1 <0>         0.0409
     22 H1         -0.9120    1.7848   -1.1402 H         1 <0>         0.1433
     23 H2          1.1777    3.0778   -1.1478 H         1 <0>         0.1419
     24 H3          3.3209    1.9864   -0.7527 H         1 <0>         0.1366
     25 H4         -0.8909   -0.6193   -0.7460 H         1 <0>         0.1493
     26 H5          0.3725   -2.6829   -0.2771 H         1 <0>         0.1562
     27 H6          2.4896   -3.8025    0.1192 H         1 <0>         0.1571
     28 H7          7.0594   -2.4202    0.3478 H         1 <0>         0.1882
     29 H8          8.9033   -0.2659    0.9791 H         1 <0>         0.1238
     30 H9          8.3350   -1.5724   -0.0922 H         1 <0>         0.1220
     31 H10        10.3463   -0.3075   -0.9875 H         1 <0>         0.1344
     32 H11         8.9358   -0.2884   -2.0746 H         1 <0>         0.0713
     33 H12         8.1092    3.1478   -1.2856 H         1 <0>         0.1323
     34 H13         7.6300    1.7284   -2.2486 H         1 <0>         0.0698
     35 H14         6.0623    1.9376   -0.4045 H         1 <0>         0.1192
     36 H15         7.3958    2.0624    0.7719 H         1 <0>         0.1209
     37 H16         5.8969   -4.3765    0.5569 H         1 <0>         0.4319
@<TRIPOS>BOND
     1    1    6 ar
     2    1    2 ar
     3    1   22 1
     4    2    3 ar
     5    2   23 1
     6    3    4 ar
     7    3   24 1
     8    4   10 ar
     9    4    5 ar
    10    5    6 ar
    11    5    7 ar
    12    6   25 1
    13    7    8 ar
    14    7   26 1
    15    8    9 ar
    16    8   27 1
    17    9   14 1
    18    9   10 ar
    19   10   11 1
    20   11   12 1
    21   12   13 1
    22   12   16 2
    23   13   14 2
    24   13   28 1
    25   14   15 1
    26   15   37 1
    27   16   21 1
    28   16   17 1
    29   17   18 1
    30   17   29 1
    31   17   30 1
    32   18   19 1
    33   18   31 1
    34   18   32 1
    35   19   20 1
    36   20   21 1
    37   20   33 1
    38   20   34 1
    39   21   35 1
    40   21   36 1
@<TRIPOS>MOLECULE
ZINC37858692
   36    39     0     0     0
SMALL
USER_CHARGES

@<TRIPOS>ATOM
      1 C1         -0.0027    1.3314   -0.5809 C.ar      1 <0>        -0.0957
      2 C2          1.1814    2.0639   -0.5824 C.ar      1 <0>        -0.1189
      3 C3          2.3878    1.4437   -0.4550 C.ar      1 <0>        -0.0885
      4 C4          2.4414    0.0480   -0.3203 C.ar      1 <0>        -0.0638
      5 C5          1.2377   -0.6980   -0.3186 C.ar      1 <0>        -0.0077
      6 C6          0.0127   -0.0245   -0.4520 C.ar      1 <0>        -0.1117
      7 C7          1.2810   -2.1004   -0.1848 C.ar      1 <0>        -0.1294
      8 C8          2.4713   -2.7380   -0.0577 C.ar      1 <0>        -0.0442
      9 C9          3.6757   -2.0151   -0.0567 C.ar      1 <0>        -0.2125
     10 C10         3.6738   -0.6264   -0.1867 C.ar      1 <0>         0.1717
     11 O1          4.8376    0.0519   -0.1847 O.3       1 <0>        -0.2410
     12 C11         6.0234   -0.5588   -0.0603 C.2       1 <0>         0.4275
     13 C12         6.1365   -1.9100    0.0731 C.2       1 <0>        -0.3910
     14 C13         4.9739   -2.7047    0.0820 C.2       1 <0>         0.4293
     15 O2          5.0371   -3.9184    0.1993 O.2       1 <0>        -0.4888
     16 N1          7.1643    0.2032   -0.0680 N.pl3     1 <0>        -0.6067
     17 C14         8.4220   -0.3216   -0.6231 C.3       1 <0>         0.0934
     18 C15         8.9802    0.7073   -1.6128 C.3       1 <0>         0.0439
     19 O3          9.0521    1.9841   -0.9739 O.3       1 <0>        -0.3748
     20 C16         7.7856    2.5064   -0.5653 C.3       1 <0>         0.0447
     21 C17         7.1648    1.5716    0.4730 C.3       1 <0>         0.0804
     22 H1         -0.9471    1.8460   -0.6788 H         1 <0>         0.1304
     23 H2          1.1431    3.1382   -0.6864 H         1 <0>         0.1299
     24 H3          3.2989    2.0237   -0.4581 H         1 <0>         0.1312
     25 H4         -0.9138   -0.5795   -0.4529 H         1 <0>         0.1369
     26 H5          0.3631   -2.6694   -0.1831 H         1 <0>         0.1399
     27 H6          2.4933   -3.8129    0.0443 H         1 <0>         0.1431
     28 H7          7.1097   -2.3679    0.1714 H         1 <0>         0.1553
     29 H8          9.1391   -0.4835    0.1817 H         1 <0>         0.0892
     30 H9          8.2310   -1.2621   -1.1399 H         1 <0>         0.1019
     31 H10         9.9772    0.4027   -1.9311 H         1 <0>         0.1148
     32 H11         8.3238    0.7710   -2.4807 H         1 <0>         0.0592
     33 H12         7.9232    3.4961   -0.1299 H         1 <0>         0.1116
     34 H13         7.1249    2.5766   -1.4294 H         1 <0>         0.0585
     35 H14         6.1417    1.8843    0.6816 H         1 <0>         0.0958
     36 H15         7.7532    1.6036    1.3900 H         1 <0>         0.0861
@<TRIPOS>BOND
     1    1    6 ar
     2    1    2 ar
     3    1   22 1
     4    2    3 ar
     5    2   23 1
     6    3    4 ar
     7    3   24 1
     8    4   10 ar
     9    4    5 ar
    10    5    6 ar
    11    5    7 ar
    12    6   25 1
    13    7    8 ar
    14    7   26 1
    15    8    9 ar
    16    8   27 1
    17    9   14 1
    18    9   10 ar
    19   10   11 1
    20   11   12 1
    21   12   13 2
    22   12   16 1
    23   13   14 1
    24   13   28 1
    25   14   15 2
    26   16   21 1
    27   16   17 1
    28   17   18 1
    29   17   29 1
    30   17   30 1
    31   18   19 1
    32   18   31 1
    33   18   32 1
    34   19   20 1
    35   20   21 1
    36   20   33 1
    37   20   34 1
    38   21   35 1
    39   21   36 1
@<TRIPOS>MOLECULE
ZINC49019448
   65    69     0     0     0
SMALL
USER_CHARGES

@<TRIPOS>ATOM
      1 C1          0.1623    1.4933   -0.2484 C.3       1 <0>        -0.1432
      2 C2          0.1615   -0.0367   -0.2501 C.3       1 <0>         0.0756
      3 H1          0.5907   -0.3999   -1.1839 H         1 <0>         0.0618
      4 C3         -1.2773   -0.5481   -0.1148 C.3       1 <0>         0.0965
      5 N1         -1.2358   -2.0074    0.0693 N.pl3     1 <0>        -0.5805
      6 C4         -0.3436   -2.5486    1.1069 C.3       1 <0>         0.0980
      7 C5          1.0497   -1.9397    0.9120 C.3       1 <0>         0.0755
      8 H2          1.4824   -2.3106   -0.0171 H         1 <0>         0.0607
      9 O1          0.9378   -0.5159    0.8506 O.3       1 <0>        -0.3742
     10 C6          1.9479   -2.3326    2.0867 C.3       1 <0>        -0.1429
     11 C7         -2.0120   -2.8449   -0.7089 C.ar      1 <0>         0.6064
     12 N2         -2.7920   -2.3090   -1.6293 N.ar      1 <0>        -0.5680
     13 C8         -3.5614   -3.0851   -2.4062 C.ar      1 <0>         0.4064
     14 C9         -3.5168   -4.4889   -2.2154 C.ar      1 <0>        -0.2695
     15 C10        -4.3133   -5.3196   -3.0162 C.ar      1 <0>         0.0126
     16 C11        -5.1105   -4.7348   -3.9600 C.ar      1 <0>        -0.2071
     17 C12        -5.1126   -3.3409   -4.1024 C.ar      1 <0>         0.2688
     18 N3         -4.3566   -2.5668   -3.3411 N.ar      1 <0>        -0.4825
     19 C13        -5.9812   -2.7195   -5.1293 C.ar      1 <0>        -0.1083
     20 C14        -6.7897   -3.5190   -5.9377 C.ar      1 <0>        -0.0469
     21 C15        -7.5970   -2.9379   -6.8916 C.ar      1 <0>        -0.2142
     22 C16        -7.6062   -1.5577   -7.0486 C.ar      1 <0>         0.1537
     23 C17        -6.8026   -0.7591   -6.2455 C.ar      1 <0>        -0.1340
     24 C18        -5.9968   -1.3337   -5.2859 C.ar      1 <0>        -0.0043
     25 C19        -6.8158    0.7378   -6.4193 C.3       1 <0>         0.1288
     26 O2         -5.9133    1.3338   -5.4854 O.3       1 <0>        -0.5679
     27 O3         -8.4025   -0.9882   -7.9899 O.3       1 <0>        -0.3133
     28 C20        -9.2029   -1.8684   -8.7815 C.3       1 <0>         0.0246
     29 C21        -2.6622   -5.0083   -1.2138 C.ar      1 <0>         0.5311
     30 N4         -1.9371   -4.1560   -0.5020 N.ar      1 <0>        -0.5803
     31 N5         -2.5818   -6.3652   -0.9874 N.pl3     1 <0>        -0.6668
     32 C22        -1.6006   -7.1958   -1.7035 C.3       1 <0>         0.1132
     33 C23        -0.8360   -8.0363   -0.6745 C.3       1 <0>         0.0467
     34 O4         -1.7711   -8.7308    0.1544 O.3       1 <0>        -0.3774
     35 C24        -2.6183   -7.8751    0.9250 C.3       1 <0>         0.0466
     36 C25        -3.4705   -7.0254   -0.0180 C.3       1 <0>         0.1133
     37 H3          1.1858    1.8562   -0.3428 H         1 <0>         0.0686
     38 H4         -0.4312    1.8579   -1.0867 H         1 <0>         0.0768
     39 H5         -0.2670    1.8558    0.6856 H         1 <0>         0.0670
     40 H6         -1.7527   -0.0825    0.7485 H         1 <0>         0.0761
     41 H7         -1.8387   -0.3078   -1.0177 H         1 <0>         0.1127
     42 H8         -0.7250   -2.2845    2.0932 H         1 <0>         0.0754
     43 H9         -0.2867   -3.6330    1.0130 H         1 <0>         0.1061
     44 H10         2.0297   -3.4184    2.1343 H         1 <0>         0.0743
     45 H11         2.9383   -1.8993    1.9475 H         1 <0>         0.0693
     46 H12         1.5155   -1.9598    3.0152 H         1 <0>         0.0672
     47 H13        -4.2971   -6.3922   -2.8909 H         1 <0>         0.1435
     48 H14        -5.7365   -5.3452   -4.5941 H         1 <0>         0.1440
     49 H15        -6.7827   -4.5922   -5.8164 H         1 <0>         0.1339
     50 H16        -8.2228   -3.5563   -7.5180 H         1 <0>         0.1371
     51 H17        -5.3754   -0.7118   -4.6586 H         1 <0>         0.1571
     52 H18        -6.5065    0.9885   -7.4340 H         1 <0>         0.0606
     53 H19        -7.8230    1.1152   -6.2428 H         1 <0>         0.0605
     54 H20        -5.8703    2.2983   -5.5405 H         1 <0>         0.3848
     55 H21        -9.8734   -2.4320   -8.1327 H         1 <0>         0.0588
     56 H22        -9.7894   -1.2860   -9.4921 H         1 <0>         0.1032
     57 H23        -8.5565   -2.5587   -9.3235 H         1 <0>         0.0588
     58 H24        -2.1170   -7.8529   -2.4033 H         1 <0>         0.0723
     59 H25        -0.9041   -6.5561   -2.2455 H         1 <0>         0.0792
     60 H26        -0.2025   -8.7570   -1.1915 H         1 <0>         0.1039
     61 H27        -0.2179   -7.3834   -0.0582 H         1 <0>         0.0569
     62 H28        -3.2671   -8.4798    1.5587 H         1 <0>         0.1043
     63 H29        -2.0067   -7.2216    1.5471 H         1 <0>         0.0567
     64 H30        -4.0116   -6.2729    0.5557 H         1 <0>         0.0795
     65 H31        -4.1783   -7.6650   -0.5452 H         1 <0>         0.0720
@<TRIPOS>BOND
     1    1    2 1
     2    1   37 1
     3    1   38 1
     4    1   39 1
     5    2    3 1
     6    2    9 1
     7    2    4 1
     8    4    5 1
     9    4   40 1
    10    4   41 1
    11    5    6 1
    12    5   11 1
    13    6    7 1
    14    6   42 1
    15    6   43 1
    16    7    8 1
    17    7    9 1
    18    7   10 1
    19   10   44 1
    20   10   45 1
    21   10   46 1
    22   11   30 ar
    23   11   12 ar
    24   12   13 ar
    25   13   18 ar
    26   13   14 ar
    27   14   15 ar
    28   14   29 ar
    29   15   16 ar
    30   15   47 1
    31   16   17 ar
    32   16   48 1
    33   17   18 ar
    34   17   19 1
    35   19   24 ar
    36   19   20 ar
    37   20   21 ar
    38   20   49 1
    39   21   22 ar
    40   21   50 1
    41   22   23 ar
    42   22   27 1
    43   23   24 ar
    44   23   25 1
    45   24   51 1
    46   25   26 1
    47   25   52 1
    48   25   53 1
    49   26   54 1
    50   27   28 1
    51   28   55 1
    52   28   56 1
    53   28   57 1
    54   29   30 ar
    55   29   31 1
    56   31   36 1
    57   31   32 1
    58   32   33 1
    59   32   58 1
    60   32   59 1
    61   33   34 1
    62   33   60 1
    63   33   61 1
    64   34   35 1
    65   35   36 1
    66   35   62 1
    67   35   63 1
    68   36   64 1
    69   36   65 1
@<TRIPOS>MOLECULE
ZINC20148984
   41    45     0     0     0
SMALL
USER_CHARGES
1-cyclopentyl-3-(1H-pyrrolo[3,2-e]pyridin-5-yl)pyrazolo[4,5-e]pyrimidin-4-amine
@<TRIPOS>ATOM
      1 C1          4.4845    4.9055    2.0125 C.2       1 <0>        -0.1900
      2 C2          5.5992    4.3307    1.5348 C.2       1 <0>         0.0669
      3 N1          5.2848    3.4893    0.5015 N.pl3     1 <0>        -0.5784
      4 H1          5.9256    2.9627   -0.0014 H         1 <0>         0.4233
      5 C3          3.9281    3.5001    0.2812 C.ar      1 <0>         0.2921
      6 C4          3.3669    4.3889    1.2195 C.ar      1 <0>        -0.1505
      7 C5          1.9890    4.6049    1.2249 C.ar      1 <0>         0.0123
      8 C6          1.2154    3.9130    0.2940 C.ar      1 <0>        -0.1086
      9 C7          1.8449    3.0477   -0.6050 C.ar      1 <0>         0.1517
     10 N2          3.1471    2.8701   -0.5872 N.ar      1 <0>        -0.4865
     11 C8         -0.2553    4.0974    0.2542 C.2       1 <0>         0.1769
     12 C9         -1.2579    3.0400    0.1283 C.ar      1 <0>        -0.3246
     13 C10        -1.2161    1.6416    0.0009 C.ar      1 <0>         0.5185
     14 N3         -2.3661    0.9828   -0.1017 N.ar      1 <0>        -0.6042
     15 C11        -3.5224    1.6223   -0.0898 C.ar      1 <0>         0.3863
     16 N4         -3.6100    2.9293    0.0228 N.ar      1 <0>        -0.5738
     17 C12        -2.5123    3.6779    0.1313 C.ar      1 <0>         0.3755
     18 N5         -2.2765    5.0144    0.2581 N.pl3     1 <0>        -0.3684
     19 N6         -0.8976    5.2388    0.3304 N.2       1 <0>        -0.2292
     20 C13        -3.3071    6.0542    0.3110 C.3       1 <0>         0.1632
     21 C14        -3.0862    7.0753   -0.8240 C.3       1 <0>        -0.1330
     22 C15        -3.4640    8.4369   -0.1879 C.3       1 <0>        -0.1220
     23 C16        -2.9184    8.3038    1.2556 C.3       1 <0>        -0.1210
     24 C17        -3.2009    6.8348    1.6328 C.3       1 <0>        -0.1322
     25 N7         -0.0104    0.9674   -0.0117 N.pl3     1 <0>        -0.8291
     26 H2          4.4234    5.6137    2.8256 H         1 <0>         0.1556
     27 H3          6.5967    4.5059    1.9100 H         1 <0>         0.1829
     28 H4          1.5348    5.2845    1.9308 H         1 <0>         0.1424
     29 H5          1.2485    2.5132   -1.3297 H         1 <0>         0.1671
     30 H6         -4.4328    1.0478   -0.1756 H         1 <0>         0.2050
     31 H7         -4.2959    5.6044    0.2215 H         1 <0>         0.1144
     32 H8         -2.0422    7.0775   -1.1374 H         1 <0>         0.0814
     33 H9         -3.7386    6.8539   -1.6687 H         1 <0>         0.0742
     34 H10        -4.5455    8.5726   -0.1810 H         1 <0>         0.0720
     35 H11        -2.9740    9.2575   -0.7119 H         1 <0>         0.0733
     36 H12        -3.4484    8.9788    1.9276 H         1 <0>         0.0704
     37 H13        -1.8473    8.5043    1.2786 H         1 <0>         0.0705
     38 H14        -4.1384    6.7646    2.1843 H         1 <0>         0.0772
     39 H15        -2.3825    6.4400    2.2349 H         1 <0>         0.0748
     40 H16         0.0305    0.0526   -0.3317 H         1 <0>         0.4120
     41 H17         0.7961    1.4102    0.2956 H         1 <0>         0.4116
@<TRIPOS>BOND
     1    1    6 1
     2    1    2 2
     3    1   26 1
     4    2    3 1
     5    2   27 1
     6    3    4 1
     7    3    5 1
     8    5   10 ar
     9    5    6 ar
    10    6    7 ar
    11    7    8 ar
    12    7   28 1
    13    8    9 ar
    14    8   11 1
    15    9   10 ar
    16    9   29 1
    17   11   19 2
    18   11   12 1
    19   12   17 ar
    20   12   13 ar
    21   13   14 ar
    22   13   25 1
    23   14   15 ar
    24   15   16 ar
    25   15   30 1
    26   16   17 ar
    27   17   18 1
    28   18   19 1
    29   18   20 1
    30   20   24 1
    31   20   21 1
    32   20   31 1
    33   21   22 1
    34   21   32 1
    35   21   33 1
    36   22   23 1
    37   22   34 1
    38   22   35 1
    39   23   24 1
    40   23   36 1
    41   23   37 1
    42   24   38 1
    43   24   39 1
    44   25   40 1
    45   25   41 1
@<TRIPOS>MOLECULE
ZINC43202843
   62    66     0     0     0
SMALL
USER_CHARGES

@<TRIPOS>ATOM
      1 C1          0.0663    1.5038    0.0112 C.3       1 <0>        -0.1003
      2 C2          0.0824   -0.0031    0.0029 C.2       1 <0>        -0.1188
      3 C3          0.1212   -0.6676   -1.1675 C.2       1 <0>        -0.0899
      4 S1          0.1260   -2.3778   -0.6558 S.3       1 <0>         0.1038
      5 C4          0.0759   -2.1184    1.0972 C.ar      1 <0>        -0.3084
      6 C5          0.0627   -0.7114    1.2178 C.ar      1 <0>         0.2180
      7 N1          0.0284   -0.2311    2.4843 N.ar      1 <0>        -0.5330
      8 C6          0.0134   -1.0391    3.5231 C.ar      1 <0>         0.4334
      9 N2          0.0307   -2.3645    3.4179 N.ar      1 <0>        -0.5664
     10 C7          0.0546   -2.9360    2.2150 C.ar      1 <0>         0.5100
     11 N3          0.0727   -4.3152    2.0853 N.pl3     1 <0>        -0.5948
     12 C8          0.1949   -5.1855    3.2656 C.3       1 <0>         0.0867
     13 C9         -0.9159   -6.2403    3.2056 C.3       1 <0>         0.0450
     14 O1         -0.8807   -6.8890    1.9321 O.3       1 <0>        -0.3749
     15 C10        -1.1300   -6.0193    0.8251 C.3       1 <0>         0.0494
     16 C11        -0.0359   -4.9533    0.7637 C.3       1 <0>         0.0888
     17 C12        -0.0242   -0.4414    4.8790 C.ar      1 <0>        -0.2179
     18 C13        -0.0357   -1.2505    6.0189 C.ar      1 <0>         0.2462
     19 N4         -0.0694   -0.6801    7.2097 N.ar      1 <0>        -0.5746
     20 C14        -0.0922    0.6398    7.3314 C.ar      1 <0>         0.5760
     21 N5         -0.0823    1.4402    6.2746 N.ar      1 <0>        -0.5738
     22 C15        -0.0432    0.9459    5.0504 C.ar      1 <0>         0.2480
     23 N6         -0.1278    1.1973    8.5958 N.pl3     1 <0>        -0.8132
     24 C16         0.1522   -0.1059   -2.5656 C.3       1 <0>         0.1316
     25 N7          1.5466    0.0925   -2.9829 N.3       1 <0>        -0.5299
     26 C17         2.1978    1.1271   -2.1683 C.3       1 <0>         0.0340
     27 C18         3.6909    1.1766   -2.5096 C.3       1 <0>         0.1221
     28 N8          3.8323    1.3491   -3.9634 N.pl3     1 <0>        -1.0029
     29 C19         3.0971    0.4323   -4.8477 C.3       1 <0>         0.1225
     30 C20         1.6274    0.4121   -4.4144 C.3       1 <0>         0.0445
     31 S2          4.7944    2.5435   -4.5879 S.o2      1 <0>         2.6089
     32 O2          4.2447    2.8191   -5.8690 O.2       1 <0>        -0.9540
     33 O3          4.8259    3.5468   -3.5821 O.2       1 <0>        -0.9534
     34 C21         6.4312    1.7809   -4.7612 C.3       1 <0>        -0.6726
     35 H1          1.0897    1.8780    0.0366 H         1 <0>         0.0749
     36 H2         -0.4310    1.8668   -0.8883 H         1 <0>         0.0654
     37 H3         -0.4715    1.8565    0.8912 H         1 <0>         0.0774
     38 H4          1.1680   -5.6765    3.2605 H         1 <0>         0.0789
     39 H5          0.0878   -4.5909    4.1728 H         1 <0>         0.1103
     40 H6         -0.7613   -6.9771    3.9938 H         1 <0>         0.1116
     41 H7         -1.8838   -5.7579    3.3418 H         1 <0>         0.0584
     42 H8         -1.1294   -6.5970   -0.0991 H         1 <0>         0.1139
     43 H9         -2.0987   -5.5361    0.9527 H         1 <0>         0.0589
     44 H10        -0.2957   -4.2049    0.0150 H         1 <0>         0.0896
     45 H11         0.9136   -5.4204    0.5025 H         1 <0>         0.0879
     46 H12        -0.0176   -2.3264    5.9272 H         1 <0>         0.1785
     47 H13        -0.0306    1.6039    4.1940 H         1 <0>         0.1811
     48 H14        -0.1357    0.6242    9.3784 H         1 <0>         0.4169
     49 H15        -0.1448    2.1615    8.7005 H         1 <0>         0.4172
     50 H16        -0.3357   -0.8021   -3.2478 H         1 <0>         0.0990
     51 H17        -0.3723    0.8495   -2.5849 H         1 <0>         0.0678
     52 H18         1.7441    2.0954   -2.3795 H         1 <0>         0.0474
     53 H19         2.0739    0.8896   -1.1117 H         1 <0>         0.0961
     54 H20         4.1566    2.0165   -1.9942 H         1 <0>         0.0994
     55 H21         4.1676    0.2454   -2.2033 H         1 <0>         0.0774
     56 H22         3.1702    0.7802   -5.8781 H         1 <0>         0.1006
     57 H23         3.5167   -0.5704   -4.7662 H         1 <0>         0.0789
     58 H24         1.0897   -0.3439   -4.9867 H         1 <0>         0.0923
     59 H25         1.1816    1.3904   -4.5943 H         1 <0>         0.0468
     60 H26         6.3639    0.9250   -5.4327 H         1 <0>         0.1277
     61 H27         7.1302    2.5100   -5.1709 H         1 <0>         0.1283
     62 H28         6.7829    1.4495   -3.7842 H         1 <0>         0.1275
@<TRIPOS>BOND
     1    1    2 1
     2    1   35 1
     3    1   36 1
     4    1   37 1
     5    2    6 1
     6    2    3 2
     7    3    4 1
     8    3   24 1
     9    4    5 1
    10    5   10 ar
    11    5    6 ar
    12    6    7 ar
    13    7    8 ar
    14    8    9 ar
    15    8   17 1
    16    9   10 ar
    17   10   11 1
    18   11   16 1
    19   11   12 1
    20   12   13 1
    21   12   38 1
    22   12   39 1
    23   13   14 1
    24   13   40 1
    25   13   41 1
    26   14   15 1
    27   15   16 1
    28   15   42 1
    29   15   43 1
    30   16   44 1
    31   16   45 1
    32   17   22 ar
    33   17   18 ar
    34   18   19 ar
    35   18   46 1
    36   19   20 ar
    37   20   21 ar
    38   20   23 1
    39   21   22 ar
    40   22   47 1
    41   23   48 1
    42   23   49 1
    43   24   25 1
    44   24   50 1
    45   24   51 1
    46   25   30 1
    47   25   26 1
    48   26   27 1
    49   26   52 1
    50   26   53 1
    51   27   28 1
    52   27   54 1
    53   27   55 1
    54   28   29 1
    55   28   31 1
    56   29   30 1
    57   29   56 1
    58   29   57 1
    59   30   58 1
    60   30   59 1
    61   31   32 2
    62   31   33 2
    63   31   34 1
    64   34   60 1
    65   34   61 1
    66   34   62 1
@<TRIPOS>MOLECULE
ZINC43202843
   63    67     0     0     0
SMALL
USER_CHARGES

@<TRIPOS>ATOM
      1 C1          0.0663    1.5038    0.0112 C.3       1 <0>        -0.1242
      2 C2          0.0824   -0.0031    0.0029 C.2       1 <0>        -0.0388
      3 C3          0.1212   -0.6676   -1.1675 C.2       1 <0>        -0.2275
      4 S1          0.1260   -2.3778   -0.6558 S.3       1 <0>         0.1269
      5 C4          0.0759   -2.1184    1.0972 C.ar      1 <0>        -0.2903
      6 C5          0.0627   -0.7114    1.2178 C.ar      1 <0>         0.1970
      7 N1          0.0284   -0.2311    2.4843 N.ar      1 <0>        -0.5281
      8 C6          0.0134   -1.0391    3.5231 C.ar      1 <0>         0.4529
      9 N2          0.0307   -2.3645    3.4179 N.ar      1 <0>        -0.5514
     10 C7          0.0546   -2.9360    2.2150 C.ar      1 <0>         0.5109
     11 N3          0.0727   -4.3152    2.0853 N.pl3     1 <0>        -0.5893
     12 C8          0.1949   -5.1855    3.2656 C.3       1 <0>         0.0831
     13 C9         -0.9159   -6.2403    3.2056 C.3       1 <0>         0.0435
     14 O1         -0.8807   -6.8890    1.9321 O.3       1 <0>        -0.3700
     15 C10        -1.1300   -6.0193    0.8251 C.3       1 <0>         0.0481
     16 C11        -0.0359   -4.9533    0.7637 C.3       1 <0>         0.0915
     17 C12        -0.0242   -0.4414    4.8790 C.ar      1 <0>        -0.2377
     18 C13        -0.0357   -1.2505    6.0189 C.ar      1 <0>         0.2547
     19 N4         -0.0694   -0.6801    7.2097 N.ar      1 <0>        -0.5723
     20 C14        -0.0922    0.6398    7.3314 C.ar      1 <0>         0.5850
     21 N5         -0.0823    1.4402    6.2746 N.ar      1 <0>        -0.5733
     22 C15        -0.0432    0.9459    5.0504 C.ar      1 <0>         0.2547
     23 N6         -0.1278    1.1973    8.5958 N.pl3     1 <0>        -0.8063
     24 C16         0.1522   -0.1059   -2.5656 C.3       1 <0>         0.0916
     25 N7          1.5466    0.0925   -2.9829 N.4       1 <0>        -0.3826
     26 C17         2.1706    1.1118   -2.1298 C.3       1 <0>        -0.0315
     27 C18         3.6551    1.2374   -2.4883 C.3       1 <0>         0.0947
     28 N8          3.7655    1.5025   -3.9311 N.pl3     1 <0>        -1.0164
     29 C19         3.0341    0.6225   -4.8557 C.3       1 <0>         0.0931
     30 C20         1.5790    0.5260   -4.3854 C.3       1 <0>        -0.0189
     31 S2          4.6867    2.7563   -4.4984 S.o2      1 <0>         2.6061
     32 O2          4.1063    3.0952   -5.7503 O.2       1 <0>        -0.9392
     33 O3          4.7135    3.6971   -3.4338 O.2       1 <0>        -0.9389
     34 C21         6.3376    2.0467   -4.7468 C.3       1 <0>        -0.6665
     35 H1          1.0897    1.8780    0.0366 H         1 <0>         0.0853
     36 H2         -0.4310    1.8668   -0.8883 H         1 <0>         0.0739
     37 H3         -0.4715    1.8565    0.8912 H         1 <0>         0.0967
     38 H4          1.1680   -5.6765    3.2605 H         1 <0>         0.0853
     39 H5          0.0878   -4.5909    4.1728 H         1 <0>         0.1137
     40 H6         -0.7613   -6.9771    3.9938 H         1 <0>         0.1174
     41 H7         -1.8838   -5.7579    3.3418 H         1 <0>         0.0612
     42 H8         -1.1294   -6.5970   -0.0991 H         1 <0>         0.1165
     43 H9         -2.0987   -5.5361    0.9527 H         1 <0>         0.0609
     44 H10        -0.2957   -4.2049    0.0150 H         1 <0>         0.0810
     45 H11         0.9136   -5.4204    0.5025 H         1 <0>         0.0928
     46 H12        -0.0176   -2.3264    5.9272 H         1 <0>         0.1791
     47 H13        -0.0306    1.6039    4.1940 H         1 <0>         0.1798
     48 H14        -0.1357    0.6242    9.3784 H         1 <0>         0.4202
     49 H15        -0.1448    2.1615    8.7005 H         1 <0>         0.4199
     50 H16        -0.3357   -0.8021   -3.2478 H         1 <0>         0.1511
     51 H17        -0.3723    0.8495   -2.5849 H         1 <0>         0.1515
     52 H18         1.6762    2.0703   -2.2879 H         1 <0>         0.1415
     53 H19         2.0727    0.8202   -1.0841 H         1 <0>         0.1454
     54 H20         4.0984    2.0615   -1.9295 H         1 <0>         0.1409
     55 H21         4.1702    0.3078   -2.2462 H         1 <0>         0.0984
     56 H22         3.0669    1.0402   -5.8619 H         1 <0>         0.1422
     57 H23         3.4866   -0.3691   -4.8526 H         1 <0>         0.0994
     58 H24         1.0451   -0.1973   -5.0018 H         1 <0>         0.1485
     59 H25         1.1025    1.5022   -4.4752 H         1 <0>         0.1402
     60 H26         6.2780    1.2316   -5.4680 H         1 <0>         0.1318
     61 H27         7.0111    2.8165   -5.1234 H         1 <0>         0.1387
     62 H28         6.7157    1.6655   -3.7982 H         1 <0>         0.1315
     63 H29         2.0513   -0.7762   -2.8889 H         1 <0>         0.4243
@<TRIPOS>BOND
     1    1    2 1
     2    1   35 1
     3    1   36 1
     4    1   37 1
     5    2    6 1
     6    2    3 2
     7    3    4 1
     8    3   24 1
     9    4    5 1
    10    5   10 ar
    11    5    6 ar
    12    6    7 ar
    13    7    8 ar
    14    8    9 ar
    15    8   17 1
    16    9   10 ar
    17   10   11 1
    18   11   16 1
    19   11   12 1
    20   12   13 1
    21   12   38 1
    22   12   39 1
    23   13   14 1
    24   13   40 1
    25   13   41 1
    26   14   15 1
    27   15   16 1
    28   15   42 1
    29   15   43 1
    30   16   44 1
    31   16   45 1
    32   17   22 ar
    33   17   18 ar
    34   18   19 ar
    35   18   46 1
    36   19   20 ar
    37   20   21 ar
    38   20   23 1
    39   21   22 ar
    40   22   47 1
    41   23   48 1
    42   23   49 1
    43   24   25 1
    44   24   50 1
    45   24   51 1
    46   25   30 1
    47   25   26 1
    48   25   63 1
    49   26   27 1
    50   26   52 1
    51   26   53 1
    52   27   28 1
    53   27   54 1
    54   27   55 1
    55   28   29 1
    56   28   31 1
    57   29   30 1
    58   29   56 1
    59   29   57 1
    60   30   58 1
    61   30   59 1
    62   31   32 2
    63   31   33 2
    64   31   34 1
    65   34   60 1
    66   34   61 1
    67   34   62 1
@<TRIPOS>MOLECULE
ZINC49780622
   81    85     0     0     0
SMALL
USER_CHARGES

@<TRIPOS>ATOM
      1 C1          1.5483   -9.3792    0.3889 C.3       1 <0>        -0.0461
      2 N1          1.1973   -8.0050    0.7715 N.4       1 <0>        -0.3830
      3 C2          1.7086   -7.0696   -0.2393 C.3       1 <0>        -0.0524
      4 C3         -0.2637   -7.8794    0.8603 C.3       1 <0>        -0.0318
      5 C4         -0.6252   -6.4861    1.3786 C.3       1 <0>         0.0935
      6 N2         -2.0822   -6.3609    1.4672 N.am      1 <0>        -0.6138
      7 C5         -2.7755   -6.7325    2.7031 C.3       1 <0>         0.0638
      8 C6         -2.7847   -5.9039    0.4117 C.2       1 <0>         0.5736
      9 O1         -2.2249   -5.6972   -0.6477 O.2       1 <0>        -0.5278
     10 C7         -4.2334   -5.6543    0.5417 C.ar      1 <0>        -0.1686
     11 C8         -4.7556   -5.1708    1.7445 C.ar      1 <0>        -0.0679
     12 C9         -6.1074   -4.9392    1.8625 C.ar      1 <0>        -0.1277
     13 C10        -6.9537   -5.1858    0.7859 C.ar      1 <0>         0.2023
     14 C11        -6.4372   -5.6676   -0.4128 C.ar      1 <0>        -0.1528
     15 C12        -5.0855   -5.8955   -0.5395 C.ar      1 <0>        -0.0360
     16 N3         -8.3223   -4.9501    0.9088 N.am      1 <0>        -0.6827
     17 C13        -8.9424   -5.1773    2.0837 C.2       1 <0>         0.7066
     18 O2         -8.2951   -5.5044    3.0594 O.2       1 <0>        -0.5493
     19 N4        -10.2802   -5.0419    2.1768 N.am      1 <0>        -0.6774
     20 C14       -10.9106   -5.1702    3.4170 C.ar      1 <0>         0.1771
     21 C15       -10.2748   -4.7201    4.5684 C.ar      1 <0>        -0.1280
     22 C16       -10.8947   -4.8450    5.7929 C.ar      1 <0>        -0.0487
     23 C17       -12.1612   -5.4238    5.8763 C.ar      1 <0>        -0.0533
     24 C18       -12.7970   -5.8747    4.7193 C.ar      1 <0>        -0.0458
     25 C19       -12.1750   -5.7426    3.4967 C.ar      1 <0>        -0.1516
     26 C20       -12.8297   -5.5599    7.1914 C.ar      1 <0>         0.3966
     27 N5        -12.2050   -5.1187    8.2722 N.ar      1 <0>        -0.5211
     28 C21       -12.7706   -5.2215    9.4720 C.ar      1 <0>         0.3344
     29 C22       -14.0467   -5.8088    9.5689 C.ar      1 <0>        -0.2055
     30 C23       -14.4011   -5.7825   10.9864 C.2       1 <0>        -0.1477
     31 C24       -13.3725   -5.2103   11.6339 C.2       1 <0>         0.0548
     32 N6        -12.3909   -4.8703   10.7389 N.pl3     1 <0>        -0.4707
     33 C25       -11.1224   -4.2258   11.0877 C.3       1 <0>         0.0725
     34 C26       -11.2544   -2.7117   10.9122 C.3       1 <0>         0.4365
     35 F1        -12.2670   -2.2317   11.7497 F         1 <0>        -0.1771
     36 F2        -10.0430   -2.0963   11.2453 F         1 <0>        -0.1741
     37 F3        -11.5739   -2.4225    9.5812 F         1 <0>        -0.1696
     38 C27       -14.6731   -6.2635    8.3971 C.ar      1 <0>         0.4889
     39 N7        -14.0365   -6.1153    7.2411 N.ar      1 <0>        -0.5387
     40 N8        -15.9266   -6.8468    8.4452 N.pl3     1 <0>        -0.6623
     41 C28       -17.1414   -6.0526    8.2025 C.3       1 <0>         0.1152
     42 C29       -17.9926   -6.7791    7.1548 C.3       1 <0>         0.0460
     43 O3        -18.1913   -8.1336    7.5668 O.3       1 <0>        -0.3782
     44 C30       -16.9872   -8.8978    7.6662 C.3       1 <0>         0.0461
     45 C31       -16.0841   -8.2810    8.7344 C.3       1 <0>         0.1159
     46 H1          2.6323   -9.4723    0.3231 H         1 <0>         0.1264
     47 H2          1.1689  -10.0732    1.1389 H         1 <0>         0.1231
     48 H3          1.1042   -9.6116   -0.5789 H         1 <0>         0.1222
     49 H4          1.4481   -6.0499    0.0446 H         1 <0>         0.1244
     50 H5          2.7926   -7.1627   -0.3051 H         1 <0>         0.1264
     51 H6          1.2644   -7.3020   -1.2071 H         1 <0>         0.1247
     52 H7         -0.7015   -8.0246   -0.1273 H         1 <0>         0.1342
     53 H8         -0.6522   -8.6338    1.5445 H         1 <0>         0.1319
     54 H9         -0.1874   -6.3409    2.3662 H         1 <0>         0.1017
     55 H10        -0.2367   -5.7318    0.6944 H         1 <0>         0.1060
     56 H11        -2.7692   -5.8873    3.3914 H         1 <0>         0.0717
     57 H12        -3.8053   -7.0065    2.4737 H         1 <0>         0.0940
     58 H13        -2.2680   -7.5800    3.1637 H         1 <0>         0.0736
     59 H14        -4.0993   -4.9795    2.5807 H         1 <0>         0.1370
     60 H15        -6.5116   -4.5659    2.7918 H         1 <0>         0.1521
     61 H16        -7.0968   -5.8587   -1.2463 H         1 <0>         0.1378
     62 H17        -4.6846   -6.2650   -1.4718 H         1 <0>         0.1369
     63 H18        -8.8282   -4.6226    0.1487 H         1 <0>         0.4147
     64 H19       -10.8052   -4.8554    1.3828 H         1 <0>         0.4121
     65 H20        -9.2941   -4.2724    4.5034 H         1 <0>         0.1373
     66 H21       -10.4002   -4.4955    6.6871 H         1 <0>         0.1392
     67 H22       -13.7775   -6.3232    4.7813 H         1 <0>         0.1428
     68 H23       -12.6685   -6.0878    2.6002 H         1 <0>         0.1324
     69 H24       -15.3146   -6.1519   11.4284 H         1 <0>         0.1600
     70 H25       -13.3260   -5.0425   12.6998 H         1 <0>         0.1869
     71 H26       -10.8734   -4.4511   12.1247 H         1 <0>         0.1411
     72 H27       -10.3334   -4.5998   10.4351 H         1 <0>         0.1372
     73 H28       -17.7061   -5.9530    9.1294 H         1 <0>         0.0698
     74 H29       -16.8665   -5.0652    7.8316 H         1 <0>         0.0780
     75 H30       -18.9580   -6.2816    7.0615 H         1 <0>         0.1025
     76 H31       -17.4792   -6.7625    6.1935 H         1 <0>         0.0566
     77 H32       -17.2292   -9.9245    7.9407 H         1 <0>         0.1028
     78 H33       -16.4701   -8.8889    6.7066 H         1 <0>         0.0553
     79 H34       -15.1094   -8.7685    8.7157 H         1 <0>         0.0771
     80 H35       -16.5406   -8.4095    9.7159 H         1 <0>         0.0694
     81 H36         1.6084   -7.7898    1.6674 H         1 <0>         0.4265
@<TRIPOS>BOND
     1    1    2 1
     2    1   46 1
     3    1   47 1
     4    1   48 1
     5    2    3 1
     6    2    4 1
     7    2   81 1
     8    3   49 1
     9    3   50 1
    10    3   51 1
    11    4    5 1
    12    4   52 1
    13    4   53 1
    14    5    6 1
    15    5   54 1
    16    5   55 1
    17    6    7 1
    18    6    8 am
    19    7   56 1
    20    7   57 1
    21    7   58 1
    22    8    9 2
    23    8   10 1
    24   10   15 ar
    25   10   11 ar
    26   11   12 ar
    27   11   59 1
    28   12   13 ar
    29   12   60 1
    30   13   14 ar
    31   13   16 1
    32   14   15 ar
    33   14   61 1
    34   15   62 1
    35   16   17 am
    36   16   63 1
    37   17   18 2
    38   17   19 am
    39   19   20 1
    40   19   64 1
    41   20   25 ar
    42   20   21 ar
    43   21   22 ar
    44   21   65 1
    45   22   23 ar
    46   22   66 1
    47   23   24 ar
    48   23   26 1
    49   24   25 ar
    50   24   67 1
    51   25   68 1
    52   26   39 ar
    53   26   27 ar
    54   27   28 ar
    55   28   32 1
    56   28   29 ar
    57   29   30 1
    58   29   38 ar
    59   30   31 2
    60   30   69 1
    61   31   32 1
    62   31   70 1
    63   32   33 1
    64   33   34 1
    65   33   71 1
    66   33   72 1
    67   34   35 1
    68   34   36 1
    69   34   37 1
    70   38   39 ar
    71   38   40 1
    72   40   45 1
    73   40   41 1
    74   41   42 1
    75   41   73 1
    76   41   74 1
    77   42   43 1
    78   42   75 1
    79   42   76 1
    80   43   44 1
    81   44   45 1
    82   44   77 1
    83   44   78 1
    84   45   79 1
    85   45   80 1
@<TRIPOS>MOLECULE
ZINC02361761
   50    53     0     0     0
SMALL
USER_CHARGES

@<TRIPOS>ATOM
      1 C1          0.7438    1.6754   -4.2706 C.3       1 <0>         0.0297
      2 O1          0.7844    0.2545   -4.4177 O.3       1 <0>        -0.3117
      3 C2          0.9942   -0.4765   -3.2915 C.ar      1 <0>         0.1804
      4 C3          1.0507   -1.8598   -3.3638 C.ar      1 <0>        -0.1879
      5 C4          1.2655   -2.6066   -2.2130 C.ar      1 <0>         0.2567
      6 C5          1.4236   -1.9670   -0.9906 C.ar      1 <0>        -0.2275
      7 C6          1.3668   -0.5836   -0.9202 C.ar      1 <0>         0.1804
      8 C7          1.1574    0.1617   -2.0710 C.ar      1 <0>        -0.3272
      9 O2          1.5210    0.0426    0.2760 O.3       1 <0>        -0.3158
     10 C8          1.4510    1.4698    0.2749 C.3       1 <0>         0.0300
     11 N1          1.3221   -4.0009   -2.2848 N.pl3     1 <0>        -0.6290
     12 C9          1.8449   -4.6168   -3.4129 C.ar      1 <0>         0.3665
     13 C10         1.7923   -6.0265   -3.5331 C.ar      1 <0>         0.4201
     14 N2          1.2186   -6.7832   -2.5226 N.2       1 <0>        -1.0698
     15 S1          1.1543   -8.4324   -2.6579 S.o2      1 <0>         2.6410
     16 O3          0.2817   -8.7172   -3.7426 O.2       1 <0>        -1.0083
     17 O4          2.4971   -8.8958   -2.6186 O.2       1 <0>        -1.0087
     18 C11         0.3677   -9.0441   -1.2048 C.ar      1 <0>        -0.6401
     19 C12         1.1240   -9.3644   -0.0927 C.ar      1 <0>         0.0057
     20 C13         0.5082   -9.8438    1.0477 C.ar      1 <0>        -0.1790
     21 C14        -0.8669  -10.0034    1.0763 C.ar      1 <0>         0.1339
     22 C15        -1.6233   -9.6823   -0.0380 C.ar      1 <0>        -0.1791
     23 C16        -1.0058   -9.1981   -1.1756 C.ar      1 <0>         0.0058
     24 F1         -1.4700  -10.4724    2.1905 F         1 <0>        -0.1390
     25 N3          2.2843   -6.6233   -4.5986 N.ar      1 <0>        -0.5655
     26 C17         2.8388   -5.8911   -5.5763 C.ar      1 <0>         0.1215
     27 C18         3.3698   -6.5041   -6.7224 C.ar      1 <0>        -0.1049
     28 C19         3.9274   -5.7390   -7.7017 C.ar      1 <0>        -0.1126
     29 C20         3.9798   -4.3527   -7.5833 C.ar      1 <0>        -0.1480
     30 C21         3.4747   -3.7250   -6.4850 C.ar      1 <0>        -0.0698
     31 C22         2.8915   -4.4819   -5.4561 C.ar      1 <0>         0.0399
     32 N4          2.3821   -3.8861   -4.3678 N.ar      1 <0>        -0.4834
     33 H1         -0.0632    1.9473   -3.5903 H         1 <0>         0.0514
     34 H2          1.6934    2.0261   -3.8665 H         1 <0>         0.0521
     35 H3          0.5703    2.1365   -5.2430 H         1 <0>         0.0966
     36 H4          0.9273   -2.3565   -4.3149 H         1 <0>         0.1468
     37 H5          1.5903   -2.5470   -0.0950 H         1 <0>         0.1321
     38 H6          1.1177    1.2396   -2.0161 H         1 <0>         0.1275
     39 H7          2.2334    1.8715   -0.3689 H         1 <0>         0.0528
     40 H8          0.4764    1.7855   -0.0974 H         1 <0>         0.0526
     41 H9          1.5897    1.8412    1.2903 H         1 <0>         0.0966
     42 H10         0.9960   -4.5383   -1.5461 H         1 <0>         0.4336
     43 H11         2.1966   -9.2402   -0.1154 H         1 <0>         0.1474
     44 H12         1.0992  -10.0943    1.9162 H         1 <0>         0.1398
     45 H13        -2.6960   -9.8067   -0.0170 H         1 <0>         0.1397
     46 H14        -1.5961   -8.9434   -2.0434 H         1 <0>         0.1474
     47 H15         3.3365   -7.5785   -6.8270 H         1 <0>         0.1240
     48 H16         4.3348   -6.2141   -8.5819 H         1 <0>         0.1170
     49 H17         4.4272   -3.7672   -8.3728 H         1 <0>         0.1164
     50 H18         3.5219   -2.6489   -6.4062 H         1 <0>         0.1220
@<TRIPOS>BOND
     1    1    2 1
     2    1   33 1
     3    1   34 1
     4    1   35 1
     5    2    3 1
     6    3    8 ar
     7    3    4 ar
     8    4    5 ar
     9    4   36 1
    10    5    6 ar
    11    5   11 1
    12    6    7 ar
    13    6   37 1
    14    7    8 ar
    15    7    9 1
    16    8   38 1
    17    9   10 1
    18   10   39 1
    19   10   40 1
    20   10   41 1
    21   11   12 1
    22   11   42 1
    23   12   32 ar
    24   12   13 ar
    25   13   14 1
    26   13   25 ar
    27   14   15 1
    28   15   16 2
    29   15   17 2
    30   15   18 1
    31   18   23 ar
    32   18   19 ar
    33   19   20 ar
    34   19   43 1
    35   20   21 ar
    36   20   44 1
    37   21   22 ar
    38   21   24 1
    39   22   23 ar
    40   22   45 1
    41   23   46 1
    42   25   26 ar
    43   26   31 ar
    44   26   27 ar
    45   27   28 ar
    46   27   47 1
    47   28   29 ar
    48   28   48 1
    49   29   30 ar
    50   29   49 1
    51   30   31 ar
    52   30   50 1
    53   31   32 ar
@<TRIPOS>MOLECULE
ZINC02361761
   50    53     0     0     0
SMALL
USER_CHARGES

@<TRIPOS>ATOM
      1 C1          2.7016   -2.1721    3.2457 C.3       1 <0>         0.0224
      2 O1          1.8083   -2.3968    2.1531 O.3       1 <0>        -0.2975
      3 C2          2.3390   -2.9108    1.0235 C.2       1 <0>         0.1626
      4 C3          3.6517   -3.1973    0.9518 C.2       1 <0>        -0.2720
      5 C4          4.2330   -3.7343   -0.2123 C.2       1 <0>         0.2171
      6 C5          3.5140   -4.0048   -1.3543 C.2       1 <0>        -0.3202
      7 C6          2.1398   -3.7536   -1.4140 C.2       1 <0>         0.2761
      8 N1          1.4492   -4.0122   -2.5068 N.2       1 <0>        -0.4529
      9 C7          2.0877   -4.4270   -3.6312 C.ar      1 <0>         0.3039
     10 C8          2.1952   -5.8574   -3.9329 C.ar      1 <0>         0.4335
     11 N2          2.8158   -6.2482   -5.0257 N.ar      1 <0>        -0.5851
     12 C9          3.3470   -5.3390   -5.8588 C.ar      1 <0>         0.1417
     13 C10         4.0102   -5.7496   -7.0265 C.ar      1 <0>        -0.1138
     14 C11         4.5455   -4.8192   -7.8656 C.ar      1 <0>        -0.1047
     15 C12         4.4455   -3.4599   -7.5823 C.ar      1 <0>        -0.1573
     16 C13         3.8098   -3.0256   -6.4588 C.ar      1 <0>        -0.0623
     17 C14         3.2445   -3.9573   -5.5706 C.ar      1 <0>         0.0115
     18 N3          2.6123   -3.5408   -4.4650 N.ar      1 <0>        -0.4584
     19 N4          1.6470   -6.7930   -3.0719 N.2       1 <0>        -1.0404
     20 S1          1.7708   -8.4080   -3.4165 S.o2      1 <0>         2.6312
     21 O2          1.0025   -8.6328   -4.5906 O.2       1 <0>        -1.0093
     22 O3          3.1510   -8.7361   -3.3348 O.2       1 <0>        -1.0112
     23 C15         0.9675   -9.2816   -2.1141 C.ar      1 <0>        -0.6372
     24 C16         1.6843   -9.6687   -0.9972 C.ar      1 <0>         0.0058
     25 C17         1.0552  -10.3536    0.0251 C.ar      1 <0>        -0.1790
     26 C18        -0.2935  -10.6520   -0.0696 C.ar      1 <0>         0.1337
     27 C19        -1.0104  -10.2638   -1.1888 C.ar      1 <0>        -0.1783
     28 C20        -0.3804   -9.5744   -2.2074 C.ar      1 <0>         0.0067
     29 F1         -0.9094  -11.3218    0.9289 F         1 <0>        -0.1390
     30 C21         1.4673   -3.1812   -0.1836 C.3       1 <0>        -0.0454
     31 O4          5.5607   -3.9965   -0.2086 O.3       1 <0>        -0.3155
     32 C22         6.1179   -4.5410   -1.4065 C.3       1 <0>         0.0250
     33 H1          3.1597   -3.1163    3.5405 H         1 <0>         0.0626
     34 H2          3.4785   -1.4707    2.9415 H         1 <0>         0.0623
     35 H3          2.1480   -1.7581    4.0884 H         1 <0>         0.1045
     36 H4          4.2773   -3.0096    1.8119 H         1 <0>         0.1342
     37 H5          4.0182   -4.4163   -2.2162 H         1 <0>         0.1275
     38 H6          4.0961   -6.8008   -7.2587 H         1 <0>         0.1241
     39 H7          5.0545   -5.1406   -8.7623 H         1 <0>         0.1174
     40 H8          4.8779   -2.7406   -8.2619 H         1 <0>         0.1166
     41 H9          3.7400   -1.9681   -6.2509 H         1 <0>         0.1206
     42 H10         2.7364   -9.4361   -0.9237 H         1 <0>         0.1457
     43 H11         1.6155  -10.6562    0.8974 H         1 <0>         0.1395
     44 H12        -2.0624  -10.4963   -1.2638 H         1 <0>         0.1401
     45 H13        -0.9404   -9.2676   -3.0785 H         1 <0>         0.1472
     46 H14         0.6784   -3.8690    0.1210 H         1 <0>         0.1223
     47 H15         0.9942   -2.2424   -0.4715 H         1 <0>         0.1195
     48 H16         5.9592   -3.8449   -2.2302 H         1 <0>         0.0593
     49 H17         7.1869   -4.7034   -1.2689 H         1 <0>         0.1006
     50 H18         5.6326   -5.4901   -1.6343 H         1 <0>         0.0641
@<TRIPOS>BOND
     1    1    2 1
     2    1   33 1
     3    1   34 1
     4    1   35 1
     5    2    3 1
     6    3   30 1
     7    3    4 2
     8    4    5 1
     9    4   36 1
    10    5    6 2
    11    5   31 1
    12    6    7 1
    13    6   37 1
    14    7    8 2
    15    7   30 1
    16    8    9 1
    17    9   18 ar
    18    9   10 ar
    19   10   11 ar
    20   10   19 1
    21   11   12 ar
    22   12   17 ar
    23   12   13 ar
    24   13   14 ar
    25   13   38 1
    26   14   15 ar
    27   14   39 1
    28   15   16 ar
    29   15   40 1
    30   16   17 ar
    31   16   41 1
    32   17   18 ar
    33   19   20 1
    34   20   21 2
    35   20   22 2
    36   20   23 1
    37   23   28 ar
    38   23   24 ar
    39   24   25 ar
    40   24   42 1
    41   25   26 ar
    42   25   43 1
    43   26   27 ar
    44   26   29 1
    45   27   28 ar
    46   27   44 1
    47   28   45 1
    48   30   46 1
    49   30   47 1
    50   31   32 1
    51   32   48 1
    52   32   49 1
    53   32   50 1
@<TRIPOS>MOLECULE
ZINC02361761
   51    54     0     0     0
SMALL
USER_CHARGES

@<TRIPOS>ATOM
      1 C1         -4.1099    1.5776    1.4911 C.3       1 <0>         0.0264
      2 O1         -4.2219    0.1536    1.5342 O.3       1 <0>        -0.3098
      3 C2         -3.3333   -0.5578    0.7918 C.ar      1 <0>         0.1871
      4 C3         -3.3895   -1.9430    0.7836 C.ar      1 <0>        -0.1845
      5 C4         -2.4817   -2.6698    0.0246 C.ar      1 <0>         0.2354
      6 C5         -1.5184   -2.0082   -0.7256 C.ar      1 <0>        -0.2192
      7 C6         -1.4638   -0.6230   -0.7162 C.ar      1 <0>         0.1876
      8 C7         -2.3742    0.1022    0.0381 C.ar      1 <0>        -0.3127
      9 O2         -0.5209    0.0246   -1.4499 O.3       1 <0>        -0.3123
     10 C8         -0.5227    1.4525   -1.3934 C.3       1 <0>         0.0267
     11 N1         -2.5373   -4.0659    0.0161 N.pl3     1 <0>        -0.6470
     12 C9         -3.7598   -4.7123    0.1295 C.ar      1 <0>         0.3610
     13 C10        -3.8021   -6.1231    0.2401 C.ar      1 <0>         0.3430
     14 N2         -4.9556   -6.7487    0.3488 N.ar      1 <0>        -0.4505
     15 C11        -6.0976   -6.0449    0.3547 C.ar      1 <0>         0.0847
     16 C12        -7.3398   -6.6889    0.4701 C.ar      1 <0>        -0.0790
     17 C13        -8.4856   -5.9523    0.4741 C.ar      1 <0>        -0.1026
     18 C14        -8.4441   -4.5649    0.3647 C.ar      1 <0>        -0.0941
     19 C15        -7.2564   -3.9075    0.2513 C.ar      1 <0>        -0.0850
     20 C16        -6.0552   -4.6346    0.2441 C.ar      1 <0>         0.1040
     21 N3         -4.8733   -4.0093    0.1390 N.ar      1 <0>        -0.4507
     22 N4         -2.6216   -6.8505    0.2334 N.pl3     1 <0>        -1.0283
     23 S1         -2.6653   -8.5009    0.3625 S.o2      1 <0>         2.6929
     24 O3         -1.3183   -8.9491    0.2984 O.2       1 <0>        -0.9422
     25 O4         -3.5162   -8.8000    1.4605 O.2       1 <0>        -0.9172
     26 C17        -3.4696   -9.1152   -1.0799 C.ar      1 <0>        -0.6897
     27 C18        -4.8423   -9.2789   -1.0884 C.ar      1 <0>         0.0329
     28 C19        -5.4742   -9.7602   -2.2193 C.ar      1 <0>        -0.1800
     29 C20        -4.7320  -10.0784   -3.3440 C.ar      1 <0>         0.1624
     30 C21        -3.3573   -9.9140   -3.3342 C.ar      1 <0>        -0.1794
     31 C22        -2.7281   -9.4276   -2.2040 C.ar      1 <0>         0.0097
     32 F1         -5.3487  -10.5494   -4.4499 F         1 <0>        -0.1277
     33 H1         -4.8766    2.0217    2.1260 H         1 <0>         0.1028
     34 H2         -3.1244    1.8755    1.8490 H         1 <0>         0.0558
     35 H3         -4.2434    1.9217    0.4655 H         1 <0>         0.0561
     36 H4         -4.1388   -2.4567    1.3676 H         1 <0>         0.1455
     37 H5         -0.8118   -2.5727   -1.3159 H         1 <0>         0.1355
     38 H6         -2.3337    1.1815    0.0417 H         1 <0>         0.1353
     39 H7         -1.4812    1.8290   -1.7505 H         1 <0>         0.0564
     40 H8         -0.3659    1.7756   -0.3643 H         1 <0>         0.0567
     41 H9          0.2778    1.8420   -2.0225 H         1 <0>         0.1031
     42 H10        -1.7212   -4.5832   -0.0691 H         1 <0>         0.4194
     43 H11        -7.3867   -7.7646    0.5549 H         1 <0>         0.1399
     44 H12        -9.4393   -6.4513    0.5630 H         1 <0>         0.1366
     45 H13        -9.3660   -4.0023    0.3695 H         1 <0>         0.1361
     46 H14        -7.2388   -2.8309    0.1671 H         1 <0>         0.1403
     47 H15        -5.4209   -9.0309   -0.2109 H         1 <0>         0.1607
     48 H16        -6.5466   -9.8883   -2.2256 H         1 <0>         0.1475
     49 H17        -2.7773  -10.1622   -4.2108 H         1 <0>         0.1476
     50 H18        -1.6563   -9.2951   -2.1977 H         1 <0>         0.1508
     51 H19        -1.7702   -6.3927    0.1532 H         1 <0>         0.4321
@<TRIPOS>BOND
     1    1    2 1
     2    1   33 1
     3    1   34 1
     4    1   35 1
     5    2    3 1
     6    3    8 ar
     7    3    4 ar
     8    4    5 ar
     9    4   36 1
    10    5    6 ar
    11    5   11 1
    12    6    7 ar
    13    6   37 1
    14    7    8 ar
    15    7    9 1
    16    8   38 1
    17    9   10 1
    18   10   39 1
    19   10   40 1
    20   10   41 1
    21   11   12 1
    22   11   42 1
    23   12   21 ar
    24   12   13 ar
    25   13   14 ar
    26   13   22 1
    27   14   15 ar
    28   15   20 ar
    29   15   16 ar
    30   16   17 ar
    31   16   43 1
    32   17   18 ar
    33   17   44 1
    34   18   19 ar
    35   18   45 1
    36   19   20 ar
    37   19   46 1
    38   20   21 ar
    39   22   23 1
    40   22   51 1
    41   23   24 2
    42   23   25 2
    43   23   26 1
    44   26   31 ar
    45   26   27 ar
    46   27   28 ar
    47   27   47 1
    48   28   29 ar
    49   28   48 1
    50   29   30 ar
    51   29   32 1
    52   30   31 ar
    53   30   49 1
    54   31   50 1
@<TRIPOS>MOLECULE
ZINC20148983
   39    42     0     0     0
SMALL
USER_CHARGES
1-isopropyl-3-(6-quinolyl)pyrazolo[4,5-e]pyrimidin-4-amine
@<TRIPOS>ATOM
      1 C1          1.0254    8.7978   -2.0248 C.3       1 <0>        -0.1621
      2 C2          1.2018    8.9153   -0.5095 C.3       1 <0>         0.1606
      3 C3         -0.1710    9.0289    0.1564 C.3       1 <0>        -0.1621
      4 N1          1.8926    7.7262   -0.0046 N.pl3     1 <0>        -0.3691
      5 C4          3.0880    7.7288    0.6508 C.ar      1 <0>         0.3756
      6 C5          3.3891    6.3885    0.9574 C.ar      1 <0>        -0.3235
      7 C6          2.2832    5.5859    0.4354 C.2       1 <0>         0.1611
      8 N2          1.4309    6.4112   -0.1252 N.2       1 <0>        -0.2249
      9 C7          2.1525    4.1119    0.5188 C.ar      1 <0>        -0.0128
     10 C8          1.7465    3.3824   -0.6110 C.ar      1 <0>        -0.0754
     11 C9          1.6190    2.0318   -0.5611 C.ar      1 <0>        -0.0829
     12 C10         1.8956    1.3409    0.6333 C.ar      1 <0>         0.1347
     13 C11         2.3061    2.0687    1.7786 C.ar      1 <0>        -0.1018
     14 C12         2.4317    3.4637    1.7084 C.ar      1 <0>        -0.0831
     15 C13         2.5804    1.3697    2.9700 C.ar      1 <0>        -0.0542
     16 C14         2.4374    0.0111    2.9678 C.ar      1 <0>        -0.1718
     17 C15         2.0303   -0.6425    1.8073 C.ar      1 <0>         0.1391
     18 N3          1.7757    0.0115    0.6997 N.ar      1 <0>        -0.4734
     19 C16         4.5832    6.1084    1.6415 C.ar      1 <0>         0.5181
     20 N4          5.3762    7.1241    1.9688 N.ar      1 <0>        -0.6038
     21 C17         5.0541    8.3678    1.6609 C.ar      1 <0>         0.3865
     22 N5          3.9473    8.6775    1.0220 N.ar      1 <0>        -0.5731
     23 N6          4.9255    4.8098    1.9657 N.pl3     1 <0>        -0.8303
     24 H1          2.0034    8.7169   -2.4992 H         1 <0>         0.0603
     25 H2          0.4358    7.9102   -2.2542 H         1 <0>         0.0702
     26 H3          0.5114    9.6825   -2.4004 H         1 <0>         0.0791
     27 H4          1.7914    9.8029   -0.2801 H         1 <0>         0.1120
     28 H5         -0.0453    9.1126    1.2359 H         1 <0>         0.0600
     29 H6         -0.6850    9.9136   -0.2192 H         1 <0>         0.0791
     30 H7         -0.7606    8.1413   -0.0730 H         1 <0>         0.0701
     31 H8          1.5326    3.9036   -1.5325 H         1 <0>         0.1376
     32 H9          1.3057    1.4868   -1.4393 H         1 <0>         0.1440
     33 H10         2.7434    4.0269    2.5755 H         1 <0>         0.1398
     34 H11         2.8910    1.8936    3.8619 H         1 <0>         0.1419
     35 H12         2.6394   -0.5553    3.8649 H         1 <0>         0.1418
     36 H13         1.9210   -1.7169    1.8201 H         1 <0>         0.1629
     37 H14         5.7273    9.1628    1.9460 H         1 <0>         0.2058
     38 H15         4.4796    4.0672    1.5292 H         1 <0>         0.4125
     39 H16         5.6119    4.6406    2.6300 H         1 <0>         0.4110
@<TRIPOS>BOND
     1    1    2 1
     2    1   24 1
     3    1   25 1
     4    1   26 1
     5    2    3 1
     6    2    4 1
     7    2   27 1
     8    3   28 1
     9    3   29 1
    10    3   30 1
    11    4    8 1
    12    4    5 1
    13    5   22 ar
    14    5    6 ar
    15    6    7 1
    16    6   19 ar
    17    7    8 2
    18    7    9 1
    19    9   14 ar
    20    9   10 ar
    21   10   11 ar
    22   10   31 1
    23   11   12 ar
    24   11   32 1
    25   12   18 ar
    26   12   13 ar
    27   13   14 ar
    28   13   15 ar
    29   14   33 1
    30   15   16 ar
    31   15   34 1
    32   16   17 ar
    33   16   35 1
    34   17   18 ar
    35   17   36 1
    36   19   20 ar
    37   19   23 1
    38   20   21 ar
    39   21   22 ar
    40   21   37 1
    41   23   38 1
    42   23   39 1
@<TRIPOS>MOLECULE
ZINC64479803
   28    31     0     0     0
SMALL
USER_CHARGES

@<TRIPOS>ATOM
      1 C1          0.5734    0.2607    1.7090 C.ar      1 <0>        -0.0968
      2 C2          1.7855    0.9164    1.7833 C.ar      1 <0>        -0.0956
      3 C3          2.6025    1.0004    0.6663 C.ar      1 <0>         0.0496
      4 C4          2.2013    0.4212   -0.5370 C.ar      1 <0>         0.0388
      5 C5          0.9878   -0.2369   -0.6157 C.ar      1 <0>        -0.0670
      6 C6          0.1673   -0.3201    0.5088 C.ar      1 <0>        -0.0169
      7 C7         -1.1344   -1.0246    0.4278 C.2       1 <0>         0.1756
      8 C8         -2.4095   -0.5536    0.9681 C.ar      1 <0>        -0.3232
      9 C9         -2.8292    0.5869    1.6726 C.ar      1 <0>         0.5197
     10 N1         -4.1105    0.6816    2.0140 N.ar      1 <0>        -0.6022
     11 C10        -4.9721   -0.2701    1.7012 C.ar      1 <0>         0.3901
     12 N2         -4.6251   -1.3542    1.0434 N.ar      1 <0>        -0.5739
     13 C11        -3.3629   -1.5409    0.6572 C.ar      1 <0>         0.3793
     14 N3         -2.7066   -2.5266   -0.0178 N.pl3     1 <0>        -0.4767
     15 H1         -3.1133   -3.3383   -0.3593 H         1 <0>         0.4499
     16 N4         -1.3567   -2.1830   -0.1469 N.2       1 <0>        -0.2263
     17 N5         -1.9328    1.5849    2.0028 N.pl3     1 <0>        -0.8280
     18 O1          3.1719    0.6412   -1.4716 O.3       1 <0>        -0.3037
     19 C12         3.9802    1.7086   -0.9423 C.3       1 <0>         0.2118
     20 O2          3.8240    1.5820    0.4834 O.3       1 <0>        -0.3039
     21 H2         -0.0586    0.1937    2.5822 H         1 <0>         0.1483
     22 H3          2.0983    1.3658    2.7142 H         1 <0>         0.1472
     23 H4          0.6757   -0.6860   -1.5470 H         1 <0>         0.1441
     24 H5         -6.0038   -0.1527    1.9985 H         1 <0>         0.2076
     25 H6         -1.0708    1.6284    1.5602 H         1 <0>         0.4136
     26 H7         -2.1655    2.2422    2.6771 H         1 <0>         0.4125
     27 H8          5.0241    1.5756   -1.2264 H         1 <0>         0.1366
     28 H9          3.6095    2.6751   -1.2837 H         1 <0>         0.0896
@<TRIPOS>BOND
     1    1    6 ar
     2    1    2 ar
     3    1   21 1
     4    2    3 ar
     5    2   22 1
     6    3   20 1
     7    3    4 ar
     8    4    5 ar
     9    4   18 1
    10    5    6 ar
    11    5   23 1
    12    6    7 1
    13    7   16 2
    14    7    8 1
    15    8   13 ar
    16    8    9 ar
    17    9   10 ar
    18    9   17 1
    19   10   11 ar
    20   11   12 ar
    21   11   24 1
    22   12   13 ar
    23   13   14 1
    24   14   15 1
    25   14   16 1
    26   17   25 1
    27   17   26 1
    28   18   19 1
    29   19   20 1
    30   19   27 1
    31   19   28 1
@<TRIPOS>MOLECULE
ZINC08581881
   25    27     0     0     0
SMALL
USER_CHARGES

@<TRIPOS>ATOM
      1 C1          0.2447    1.7699    0.6882 C.ar      1 <0>        -0.1041
      2 C2          0.7307    1.0893    1.7901 C.ar      1 <0>        -0.1153
      3 C3          1.9036    0.3682    1.6970 C.ar      1 <0>        -0.1092
      4 C4          2.5990    0.3265    0.4895 C.ar      1 <0>        -0.0287
      5 C5          2.1044    1.0143   -0.6175 C.ar      1 <0>        -0.0842
      6 C6          0.9305    1.7321   -0.5126 C.ar      1 <0>        -0.1144
      7 C7          3.8599   -0.4460    0.3833 C.2       1 <0>         0.1738
      8 C8          4.0960   -1.7941    0.8992 C.ar      1 <0>        -0.3250
      9 C9          3.3258   -2.7401    1.5961 C.ar      1 <0>         0.5194
     10 N1          3.8885   -3.9022    1.9123 N.ar      1 <0>        -0.6034
     11 C10         5.1403   -4.1665    1.5821 C.ar      1 <0>         0.3892
     12 N2          5.8986   -3.3123    0.9309 N.ar      1 <0>        -0.5748
     13 C11         5.4245   -2.1202    0.5690 C.ar      1 <0>         0.3781
     14 N3          5.9423   -1.0476   -0.0940 N.pl3     1 <0>        -0.4788
     15 H1          6.8449   -0.9877   -0.4442 H         1 <0>         0.4490
     16 N4          4.9681   -0.0488   -0.1959 N.2       1 <0>        -0.2315
     17 N5          2.0167   -2.4693    1.9444 N.pl3     1 <0>        -0.8276
     18 H2         -0.6759    2.3293    0.7645 H         1 <0>         0.1293
     19 H3          0.1913    1.1227    2.7252 H         1 <0>         0.1321
     20 H4          2.2823   -0.1625    2.5581 H         1 <0>         0.1315
     21 H5          2.6392    0.9858   -1.5554 H         1 <0>         0.1300
     22 H6          0.5463    2.2653   -1.3696 H         1 <0>         0.1313
     23 H7          5.5579   -5.1233    1.8588 H         1 <0>         0.2073
     24 H8          1.5430   -1.7376    1.5187 H         1 <0>         0.4144
     25 H9          1.5712   -3.0107    2.6147 H         1 <0>         0.4116
@<TRIPOS>BOND
     1    1    6 ar
     2    1    2 ar
     3    1   18 1
     4    2    3 ar
     5    2   19 1
     6    3    4 ar
     7    3   20 1
     8    4    5 ar
     9    4    7 1
    10    5    6 ar
    11    5   21 1
    12    6   22 1
    13    7   16 2
    14    7    8 1
    15    8   13 ar
    16    8    9 ar
    17    9   10 ar
    18    9   17 1
    19   10   11 ar
    20   11   12 ar
    21   11   23 1
    22   12   13 ar
    23   13   14 1
    24   14   15 1
    25   14   16 1
    26   17   24 1
    27   17   25 1
@<TRIPOS>MOLECULE
ZINC08581906
   35    37     0     0     0
SMALL
USER_CHARGES

@<TRIPOS>ATOM
      1 C1          0.4062    0.7134    0.7743 C.3       1 <0>        -0.1622
      2 C2          0.2062   -0.7227    0.2861 C.3       1 <0>         0.1603
      3 C3          0.8807   -1.6910    1.2599 C.3       1 <0>        -0.1622
      4 N1         -1.2267   -1.0197    0.2161 N.pl3     1 <0>        -0.3682
      5 C4         -1.9008   -1.3860   -0.9107 C.ar      1 <0>         0.3764
      6 C5         -3.2452   -1.5750   -0.5394 C.ar      1 <0>        -0.3225
      7 C6         -3.3224   -1.2938    0.8939 C.2       1 <0>         0.1576
      8 N2         -2.1144   -0.9772    1.2964 N.2       1 <0>        -0.2230
      9 C7         -4.5398   -1.3596    1.7373 C.ar      1 <0>         0.0119
     10 C8         -5.4110   -2.4425    1.6242 C.ar      1 <0>        -0.1154
     11 C9         -6.5434   -2.5019    2.4107 C.ar      1 <0>        -0.0699
     12 C10        -6.8177   -1.4892    3.3123 C.ar      1 <0>        -0.1122
     13 C11        -5.9551   -0.4073    3.4309 C.ar      1 <0>         0.1435
     14 C12        -4.8137   -0.3425    2.6492 C.ar      1 <0>        -0.1062
     15 O1         -6.2283    0.5856    4.3181 O.3       1 <0>        -0.4823
     16 Br1        -8.3720   -1.5780    4.3858 Br        1 <0>        -0.0262
     17 C13        -4.1663   -1.9613   -1.5268 C.ar      1 <0>         0.5186
     18 N3         -3.7252   -2.1311   -2.7695 N.ar      1 <0>        -0.6031
     19 C14        -2.4536   -1.9426   -3.0738 C.ar      1 <0>         0.3877
     20 N4         -1.5560   -1.5814   -2.1832 N.ar      1 <0>        -0.5731
     21 N5         -5.4973   -2.1603   -1.2145 N.pl3     1 <0>        -0.8288
     22 H1          1.4723    0.9344    0.8264 H         1 <0>         0.0796
     23 H2         -0.0744    1.4033    0.0805 H         1 <0>         0.0606
     24 H3         -0.0369    0.8258    1.7638 H         1 <0>         0.0698
     25 H4          0.6493   -0.8351   -0.7034 H         1 <0>         0.1127
     26 H5          0.4376   -1.5786    2.2494 H         1 <0>         0.0699
     27 H6          0.7383   -2.7142    0.9121 H         1 <0>         0.0604
     28 H7          1.9468   -1.4701    1.3120 H         1 <0>         0.0794
     29 H8         -5.1997   -3.2345    0.9210 H         1 <0>         0.1438
     30 H9         -7.2175   -3.3410    2.3219 H         1 <0>         0.1472
     31 H10        -4.1397    0.4960    2.7436 H         1 <0>         0.1455
     32 H11        -5.8524    0.4419    5.1973 H         1 <0>         0.3991
     33 H12        -2.1380   -2.0919   -4.0958 H         1 <0>         0.2063
     34 H13        -5.8559   -1.8196   -0.3801 H         1 <0>         0.4127
     35 H14        -6.0732   -2.6406   -1.8297 H         1 <0>         0.4121
@<TRIPOS>BOND
     1    1    2 1
     2    1   22 1
     3    1   23 1
     4    1   24 1
     5    2    3 1
     6    2    4 1
     7    2   25 1
     8    3   26 1
     9    3   27 1
    10    3   28 1
    11    4    8 1
    12    4    5 1
    13    5   20 ar
    14    5    6 ar
    15    6    7 1
    16    6   17 ar
    17    7    8 2
    18    7    9 1
    19    9   14 ar
    20    9   10 ar
    21   10   11 ar
    22   10   29 1
    23   11   12 ar
    24   11   30 1
    25   12   13 ar
    26   12   16 1
    27   13   14 ar
    28   13   15 1
    29   14   31 1
    30   15   32 1
    31   17   18 ar
    32   17   21 1
    33   18   19 ar
    34   19   20 ar
    35   19   33 1
    36   21   34 1
    37   21   35 1
@<TRIPOS>MOLECULE
ZINC36056301
   39    42     0     0     0
SMALL
USER_CHARGES

@<TRIPOS>ATOM
      1 C1          0.9254    1.9991    0.1115 C.3       1 <0>        -0.1625
      2 C2          0.5644    0.5164    0.0017 C.3       1 <0>         0.1602
      3 C3         -0.9547    0.3678   -0.1037 C.3       1 <0>        -0.1630
      4 N1          1.1948   -0.0526   -1.1921 N.pl3     1 <0>        -0.3660
      5 C4          2.0845   -1.0857   -1.1960 C.ar      1 <0>         0.3791
      6 C5          2.4399   -1.3150   -2.5382 C.ar      1 <0>        -0.3289
      7 C6          1.6949   -0.3401   -3.3365 C.2       1 <0>         0.1761
      8 N2          0.9724    0.3761   -2.5050 N.2       1 <0>        -0.2098
      9 C7          1.7418   -0.1929   -4.8056 C.2       1 <0>         0.1339
     10 C8          0.6708    0.0518   -5.6025 C.2       1 <0>        -0.1346
     11 C9          1.1678    0.1218   -6.9754 C.ar      1 <0>        -0.0943
     12 C10         0.5575    0.3431   -8.2141 C.ar      1 <0>        -0.0897
     13 C11         1.3249    0.3481   -9.3611 C.ar      1 <0>         0.0805
     14 C12         2.6992    0.1341   -9.2873 C.ar      1 <0>        -0.1109
     15 C13         3.3112   -0.0854   -8.0732 C.ar      1 <0>        -0.1139
     16 C14         2.5568   -0.0941   -6.9049 C.ar      1 <0>         0.1038
     17 N3          2.8789   -0.2768   -5.5757 N.pl3     1 <0>        -0.5932
     18 H1          3.7722   -0.4418   -5.2356 H         1 <0>         0.4168
     19 O1          0.7369    0.5623  -10.5684 O.3       1 <0>        -0.4967
     20 C15         3.3555   -2.3402   -2.8244 C.ar      1 <0>         0.5168
     21 N4          3.8460   -3.0492   -1.8121 N.ar      1 <0>        -0.6021
     22 C16         3.4845   -2.7997   -0.5663 C.ar      1 <0>         0.3889
     23 N5          2.6311   -1.8502   -0.2510 N.ar      1 <0>        -0.5714
     24 N6          3.7369   -2.6060   -4.1255 N.pl3     1 <0>        -0.8317
     25 H2          2.0076    2.1050    0.1866 H         1 <0>         0.0602
     26 H3          0.5693    2.5263   -0.7736 H         1 <0>         0.0709
     27 H4          0.4564    2.4224    0.9997 H         1 <0>         0.0802
     28 H5          0.9205   -0.0108    0.8868 H         1 <0>         0.1134
     29 H6         -1.3108    0.8949   -0.9888 H         1 <0>         0.0712
     30 H7         -1.2119   -0.6886   -0.1820 H         1 <0>         0.0610
     31 H8         -1.4237    0.7911    0.7845 H         1 <0>         0.0801
     32 H9         -0.3538    0.1719   -5.2829 H         1 <0>         0.1573
     33 H10        -0.5081    0.5089   -8.2728 H         1 <0>         0.1338
     34 H11         3.2906    0.1399  -10.1910 H         1 <0>         0.1358
     35 H12         4.3776   -0.2505   -8.0283 H         1 <0>         0.1290
     36 H13         0.6969    1.4933  -10.8268 H         1 <0>         0.3892
     37 H14         3.9074   -3.3999    0.2258 H         1 <0>         0.2077
     38 H15         3.2729   -2.1806   -4.8634 H         1 <0>         0.4091
     39 H16         4.4688   -3.2179   -4.3009 H         1 <0>         0.4134
@<TRIPOS>BOND
     1    1    2 1
     2    1   25 1
     3    1   26 1
     4    1   27 1
     5    2    3 1
     6    2    4 1
     7    2   28 1
     8    3   29 1
     9    3   30 1
    10    3   31 1
    11    4    8 1
    12    4    5 1
    13    5   23 ar
    14    5    6 ar
    15    6    7 1
    16    6   20 ar
    17    7    8 2
    18    7    9 1
    19    9   17 1
    20    9   10 2
    21   10   11 1
    22   10   32 1
    23   11   16 ar
    24   11   12 ar
    25   12   13 ar
    26   12   33 1
    27   13   14 ar
    28   13   19 1
    29   14   15 ar
    30   14   34 1
    31   15   16 ar
    32   15   35 1
    33   16   17 1
    34   17   18 1
    35   19   36 1
    36   20   21 ar
    37   20   24 1
    38   21   22 ar
    39   22   23 ar
    40   22   37 1
    41   24   38 1
    42   24   39 1
@<TRIPOS>MOLECULE
ZINC36056301
   40    43     0     0     0
SMALL
NO_CHARGES

@<TRIPOS>ATOM
      1 C1          0.4668   -0.4939    1.1218 C.3       1 <0>        -0.1699
      2 C2          0.3340   -1.7615    0.2754 C.3       1 <0>         0.1613
      3 C3          1.1061   -2.9024    0.9410 C.3       1 <0>        -0.1701
      4 N1         -1.0799   -2.1284    0.1641 N.pl3     1 <0>        -0.3634
      5 C4         -1.7908   -2.2350   -1.0057 C.ar      1 <0>         0.4043
      6 C5         -3.1109   -2.6092   -0.6652 C.ar      1 <0>        -0.2157
      7 C6         -4.0447   -2.7836   -1.7054 C.ar      1 <0>         0.3985
      8 N2         -3.6387   -2.5876   -2.9589 N.ar      1 <0>        -0.5485
      9 C7         -2.3961   -2.2391   -3.2258 C.ar      1 <0>         0.3110
     10 N3         -1.4867   -2.0641   -2.2858 N.ar      1 <0>        -0.5580
     11 N4         -5.3440   -3.1479   -1.4334 N.pl3     1 <0>        -0.8571
     12 C8         -3.1685   -2.7231    0.7407 C.2       1 <0>         0.1060
     13 C9         -4.3454   -3.0906    1.5281 C.2       1 <0>         0.1145
     14 C10        -4.5167   -2.8192    2.8889 C.2       1 <0>        -0.1932
     15 C11        -5.7650   -3.3339    3.2429 C.ar      1 <0>        -0.0803
     16 C12        -6.5191   -3.3917    4.4278 C.ar      1 <0>        -0.1106
     17 C13        -7.7442   -3.9909    4.4147 C.ar      1 <0>         0.0839
     18 C14        -8.2689   -4.5512    3.2463 C.ar      1 <0>        -0.1283
     19 C15        -7.5862   -4.5260    2.0714 C.ar      1 <0>        -0.1066
     20 C16        -6.3164   -3.9222    2.0150 C.ar      1 <0>         0.0610
     21 N5         -5.4208   -3.7321    1.0501 N.pl3     1 <0>        -0.5313
     22 O1         -8.4709   -4.0448    5.5631 O.3       1 <0>        -0.5017
     23 N6         -1.9318   -2.4352    1.2329 N.pl3     1 <0>        -0.4440
     24 H1          1.5188   -0.2209    1.2046 H         1 <0>         0.0835
     25 H2         -0.0832    0.3190    0.6476 H         1 <0>         0.0676
     26 H3          0.0595   -0.6766    2.1162 H         1 <0>         0.0606
     27 H4          0.7413   -1.5787   -0.7190 H         1 <0>         0.1243
     28 H5          1.0115   -3.8055    0.3380 H         1 <0>         0.0673
     29 H6          2.1581   -2.6294    1.0238 H         1 <0>         0.0835
     30 H7          0.6988   -3.0851    1.9354 H         1 <0>         0.0606
     31 H8         -2.1102   -2.0906   -4.2566 H         1 <0>         0.1998
     32 H9         -5.8197   -2.7336   -0.6966 H         1 <0>         0.4069
     33 H10        -5.7838   -3.8189   -1.9786 H         1 <0>         0.4071
     34 H11        -3.8197   -2.3112    3.5389 H         1 <0>         0.1445
     35 H12        -6.1313   -2.9654    5.3413 H         1 <0>         0.1279
     36 H13        -9.2428   -5.0169    3.2782 H         1 <0>         0.1286
     37 H14        -8.0164   -4.9676    1.1847 H         1 <0>         0.1247
     38 H15        -9.0572   -3.2870    5.6936 H         1 <0>         0.3860
     39 H16        -1.6823   -2.4395    2.1702 H         1 <0>         0.4490
     40 H17        -5.5296   -4.0197    0.1301 H         1 <0>         0.4163
@<TRIPOS>BOND
     1    1    2 1
     2    1   24 1
     3    1   25 1
     4    1   26 1
     5    2    3 1
     6    2    4 1
     7    2   27 1
     8    3   28 1
     9    3   29 1
    10    3   30 1
    11    4   23 1
    12    4    5 1
    13    5   10 ar
    14    5    6 ar
    15    6    7 ar
    16    6   12 1
    17    7    8 ar
    18    7   11 1
    19    8    9 ar
    20    9   10 ar
    21    9   31 1
    22   11   32 1
    23   11   33 1
    24   12   13 2
    25   12   23 1
    26   13   21 1
    27   13   14 1
    28   14   15 2
    29   14   34 1
    30   15   20 ar
    31   15   16 ar
    32   16   17 ar
    33   16   35 1
    34   17   18 ar
    35   17   22 1
    36   18   19 ar
    37   18   36 1
    38   19   20 ar
    39   19   37 1
    40   20   21 2
    41   21   40 1
    42   22   38 1
    43   23   39 1
@<TRIPOS>MOLECULE
ZINC62260316
   60    65     0     0     0
SMALL
USER_CHARGES

@<TRIPOS>ATOM
      1 C1          1.0153    1.9189    1.6964 C.3       1 <0>        -0.1214
      2 C2          0.9391    0.4646    1.3089 C.ar      1 <0>        -0.0618
      3 C3          1.1840    0.0829    0.0041 C.ar      1 <0>        -0.1105
      4 C4          1.1137   -1.2511   -0.3523 C.ar      1 <0>        -0.0943
      5 C5          0.7986   -2.2075    0.5958 C.ar      1 <0>        -0.1128
      6 C6          0.5531   -1.8324    1.9019 C.ar      1 <0>        -0.0928
      7 C7          0.6281   -0.4937    2.2642 C.ar      1 <0>         0.0873
      8 N1          0.3848   -0.1106    3.5893 N.am      1 <0>        -0.4934
      9 C8         -0.8818    0.1947    3.9812 C.2       1 <0>         0.3779
     10 N2         -1.1865    0.5579    5.1899 N.2       1 <0>        -0.4934
     11 C9         -0.2448    0.6587    6.1610 C.ar      1 <0>         0.1574
     12 C10        -0.5724    1.0489    7.4613 C.ar      1 <0>        -0.1140
     13 C11         0.4155    1.1375    8.4159 C.ar      1 <0>        -0.0658
     14 C12         1.7363    0.8436    8.1026 C.ar      1 <0>        -0.1408
     15 C13         2.0845    0.4570    6.8270 C.ar      1 <0>        -0.0018
     16 C14         1.0995    0.3605    5.8459 C.ar      1 <0>        -0.1970
     17 C15         1.4110   -0.0526    4.4699 C.2       1 <0>         0.5551
     18 O1          2.5482   -0.3282    4.1345 O.2       1 <0>        -0.4882
     19 C16         3.5200    0.1408    6.4950 C.3       1 <0>        -0.1339
     20 C17        -1.9870    0.1073    2.9605 C.3       1 <0>         0.1991
     21 N3         -3.2598    0.4743    3.5863 N.pl3     1 <0>        -0.3622
     22 C18        -4.1124   -0.3919    4.2037 C.ar      1 <0>         0.3937
     23 C19        -5.2051    0.3674    4.6624 C.ar      1 <0>        -0.3170
     24 C20        -4.9402    1.7519    4.2721 C.2       1 <0>         0.1726
     25 N4         -3.7861    1.7690    3.6484 N.2       1 <0>        -0.2195
     26 C21        -5.8121    2.9213    4.5378 C.ar      1 <0>        -0.0054
     27 C22        -6.3811    3.0972    5.7986 C.ar      1 <0>        -0.1181
     28 C23        -7.1919    4.1868    6.0435 C.ar      1 <0>        -0.0970
     29 C24        -7.4428    5.1058    5.0414 C.ar      1 <0>        -0.1319
     30 C25        -6.8807    4.9380    3.7834 C.ar      1 <0>         0.1123
     31 C26        -6.0606    3.8507    3.5303 C.ar      1 <0>        -0.1119
     32 O2         -7.1305    5.8437    2.8014 O.3       1 <0>        -0.4963
     33 C27        -6.2419   -0.2916    5.3430 C.ar      1 <0>         0.5187
     34 N5         -6.1435   -1.6052    5.5232 N.ar      1 <0>        -0.6028
     35 C28        -5.0990   -2.2789    5.0755 C.ar      1 <0>         0.3881
     36 N6         -4.1050   -1.7045    4.4340 N.ar      1 <0>        -0.5735
     37 N7         -7.3365    0.4076    5.8139 N.pl3     1 <0>        -0.8287
     38 H1          2.0326    2.1599    2.0049 H         1 <0>         0.0780
     39 H2          0.7385    2.5374    0.8426 H         1 <0>         0.0789
     40 H3          0.3301    2.1115    2.5219 H         1 <0>         0.0602
     41 H4          1.4304    0.8274   -0.7385 H         1 <0>         0.1342
     42 H5          1.3050   -1.5469   -1.3732 H         1 <0>         0.1328
     43 H6          0.7441   -3.2487    0.3143 H         1 <0>         0.1347
     44 H7          0.3070   -2.5797    2.6418 H         1 <0>         0.1296
     45 H8         -1.5960    1.2803    7.7166 H         1 <0>         0.1358
     46 H9          0.1604    1.4398    9.4209 H         1 <0>         0.1359
     47 H10         2.4970    0.9191    8.8655 H         1 <0>         0.1349
     48 H11         3.7085   -0.9184    6.6699 H         1 <0>         0.0772
     49 H12         3.7110    0.3758    5.4479 H         1 <0>         0.0986
     50 H13         4.1788    0.7363    7.1271 H         1 <0>         0.0676
     51 H14        -1.7764    0.7904    2.1376 H         1 <0>         0.1279
     52 H15        -2.0500   -0.9120    2.5795 H         1 <0>         0.1313
     53 H16        -6.1876    2.3807    6.5833 H         1 <0>         0.1349
     54 H17        -7.6320    4.3219    7.0204 H         1 <0>         0.1370
     55 H18        -8.0782    5.9567    5.2380 H         1 <0>         0.1350
     56 H19        -5.6187    3.7214    2.5534 H         1 <0>         0.1359
     57 H20        -6.4976    6.5742    2.7698 H         1 <0>         0.3950
     58 H21        -5.0595   -3.3449    5.2437 H         1 <0>         0.2041
     59 H22        -7.5166    1.3033    5.4881 H         1 <0>         0.4136
     60 H23        -7.9249    0.0028    6.4702 H         1 <0>         0.4111
@<TRIPOS>BOND
     1    1    2 1
     2    1   38 1
     3    1   39 1
     4    1   40 1
     5    2    7 ar
     6    2    3 ar
     7    3    4 ar
     8    3   41 1
     9    4    5 ar
    10    4   42 1
    11    5    6 ar
    12    5   43 1
    13    6    7 ar
    14    6   44 1
    15    7    8 1
    16    8   17 am
    17    8    9 1
    18    9   10 2
    19    9   20 1
    20   10   11 1
    21   11   16 ar
    22   11   12 ar
    23   12   13 ar
    24   12   45 1
    25   13   14 ar
    26   13   46 1
    27   14   15 ar
    28   14   47 1
    29   15   16 ar
    30   15   19 1
    31   16   17 1
    32   17   18 2
    33   19   48 1
    34   19   49 1
    35   19   50 1
    36   20   21 1
    37   20   51 1
    38   20   52 1
    39   21   25 1
    40   21   22 1
    41   22   36 ar
    42   22   23 ar
    43   23   24 1
    44   23   33 ar
    45   24   25 2
    46   24   26 1
    47   26   31 ar
    48   26   27 ar
    49   27   28 ar
    50   27   53 1
    51   28   29 ar
    52   28   54 1
    53   29   30 ar
    54   29   55 1
    55   30   31 ar
    56   30   32 1
    57   31   56 1
    58   32   57 1
    59   33   34 ar
    60   33   37 1
    61   34   35 ar
    62   35   36 ar
    63   35   58 1
    64   37   59 1
    65   37   60 1
@<TRIPOS>MOLECULE
ZINC43465534
   35    37     0     0     0
SMALL
USER_CHARGES

@<TRIPOS>ATOM
      1 C1          0.4068    0.7074    0.7781 C.3       1 <0>        -0.1627
      2 C2          0.2063   -0.7277    0.2871 C.3       1 <0>         0.1599
      3 C3          0.8804   -1.6981    1.2590 C.3       1 <0>        -0.1628
      4 N1         -1.2267   -1.0239    0.2164 N.pl3     1 <0>        -0.3665
      5 C4         -1.9011   -1.3879   -0.9114 C.ar      1 <0>         0.3770
      6 C5         -3.2456   -1.5763   -0.5412 C.ar      1 <0>        -0.3202
      7 C6         -3.3233   -1.2974    0.8930 C.2       1 <0>         0.1500
      8 N2         -2.1144   -0.9832    1.2968 N.2       1 <0>        -0.2166
      9 C7         -4.5400   -1.3639    1.7350 C.ar      1 <0>         0.0405
     10 C8         -5.4108   -2.4492    1.6175 C.ar      1 <0>        -0.1236
     11 C9         -6.5343   -2.5157    2.3909 C.ar      1 <0>        -0.0350
     12 C10        -6.8185   -1.4966    3.3050 C.ar      1 <0>        -0.0471
     13 C11        -5.9488   -0.4059    3.4275 C.ar      1 <0>         0.1574
     14 C12        -4.8115   -0.3452    2.6483 C.ar      1 <0>        -0.1216
     15 F1         -6.2198    0.5812    4.3092 F         1 <0>        -0.1185
     16 C13        -7.9977   -1.5677    4.1144 C.1       1 <0>         0.2436
     17 N3         -8.9331   -1.6242    4.7564 N.1       1 <0>        -0.3868
     18 C14        -4.1666   -1.9604   -1.5294 C.ar      1 <0>         0.5185
     19 N4         -3.7251   -2.1289   -2.7722 N.ar      1 <0>        -0.6017
     20 C15        -2.4531   -1.9410   -3.0755 C.ar      1 <0>         0.3888
     21 N5         -1.5559   -1.5814   -2.1840 N.ar      1 <0>        -0.5722
     22 N6         -5.4979   -2.1588   -1.2179 N.pl3     1 <0>        -0.8291
     23 H1          1.4730    0.9278    0.8306 H         1 <0>         0.0799
     24 H2         -0.0734    1.3988    0.0856 H         1 <0>         0.0609
     25 H3         -0.0363    0.8181    1.7678 H         1 <0>         0.0705
     26 H4          0.6494   -0.8384   -0.7026 H         1 <0>         0.1133
     27 H5          0.4373   -1.5875    2.2488 H         1 <0>         0.0706
     28 H6          0.7375   -2.7206    0.9093 H         1 <0>         0.0608
     29 H7          1.9466   -1.4777    1.3116 H         1 <0>         0.0797
     30 H8         -5.1952   -3.2384    0.9125 H         1 <0>         0.1508
     31 H9         -7.2048   -3.3571    2.2960 H         1 <0>         0.1545
     32 H10        -4.1355    0.4918    2.7420 H         1 <0>         0.1555
     33 H11        -2.1372   -2.0892   -4.0976 H         1 <0>         0.2066
     34 H12        -5.8568   -1.8178   -0.3838 H         1 <0>         0.4121
     35 H13        -6.0736   -2.6390   -1.8334 H         1 <0>         0.4130
@<TRIPOS>BOND
     1    1    2 1
     2    1   23 1
     3    1   24 1
     4    1   25 1
     5    2    3 1
     6    2    4 1
     7    2   26 1
     8    3   27 1
     9    3   28 1
    10    3   29 1
    11    4    8 1
    12    4    5 1
    13    5   21 ar
    14    5    6 ar
    15    6    7 1
    16    6   18 ar
    17    7    8 2
    18    7    9 1
    19    9   14 ar
    20    9   10 ar
    21   10   11 ar
    22   10   30 1
    23   11   12 ar
    24   11   31 1
    25   12   13 ar
    26   12   16 1
    27   13   14 ar
    28   13   15 1
    29   14   32 1
    30   16   17 3
    31   18   19 ar
    32   18   22 1
    33   19   20 ar
    34   20   21 ar
    35   20   33 1
    36   22   34 1
    37   22   35 1
@<TRIPOS>MOLECULE
ZINC64521265
   46    49     0     0     0
SMALL
USER_CHARGES

@<TRIPOS>ATOM
      1 C1          0.3476   -2.5642    0.7938 C.3       1 <0>        -0.1628
      2 C2         -0.3724   -2.4367   -0.5502 C.3       1 <0>         0.1606
      3 C3         -0.6891   -3.8315   -1.0934 C.3       1 <0>        -0.1622
      4 N1         -1.6190   -1.6892   -0.3674 N.pl3     1 <0>        -0.3682
      5 C4         -1.9328   -0.5173   -0.9891 C.ar      1 <0>         0.3758
      6 C5         -3.2117   -0.1436   -0.5353 C.ar      1 <0>        -0.3225
      7 C6         -3.6371   -1.1809    0.4040 C.2       1 <0>         0.1593
      8 N2         -2.6746   -2.0702    0.4677 N.2       1 <0>        -0.2224
      9 C7         -4.9218   -1.2229    1.1432 C.ar      1 <0>        -0.0245
     10 C8         -6.1183   -0.9455    0.4812 C.ar      1 <0>        -0.0801
     11 C9         -7.3162   -0.9844    1.1672 C.ar      1 <0>        -0.1161
     12 C10        -7.3388   -1.2973    2.5117 C.ar      1 <0>        -0.0731
     13 C11        -6.1481   -1.5766    3.1861 C.ar      1 <0>        -0.1285
     14 C12        -4.9368   -1.5447    2.4966 C.ar      1 <0>        -0.0211
     15 C13        -6.1728   -1.9106    4.6256 C.2       1 <0>         0.5570
     16 O1         -5.1357   -2.1534    5.2109 O.2       1 <0>        -0.4587
     17 N3         -7.3453   -1.9460    5.2893 N.am      1 <0>        -0.6240
     18 C14        -7.3683   -2.2582    6.6345 C.2       1 <0>         0.4093
     19 N4         -6.3504   -2.5344    7.3965 N.2       1 <0>        -0.5323
     20 C15        -6.5264   -2.8706    8.7976 C.3       1 <0>         0.0491
     21 C16        -7.9176   -2.4104    9.3123 C.3       1 <0>        -0.0885
     22 S1         -8.8003   -2.3601    7.6961 S.3       1 <0>        -0.2223
     23 C17        -3.7785    1.0433   -1.0279 C.ar      1 <0>         0.5179
     24 N5         -3.0796    1.7609   -1.9021 N.ar      1 <0>        -0.6035
     25 C18        -1.8816    1.3723   -2.3010 C.ar      1 <0>         0.3866
     26 N6         -1.3117    0.2693   -1.8675 N.ar      1 <0>        -0.5726
     27 N7         -5.0310    1.4545   -0.6148 N.pl3     1 <0>        -0.8297
     28 H1          1.2751   -3.1204    0.6578 H         1 <0>         0.0793
     29 H2          0.5732   -1.5705    1.1808 H         1 <0>         0.0605
     30 H3         -0.2926   -3.0925    1.5003 H         1 <0>         0.0708
     31 H4          0.2678   -1.9084   -1.2566 H         1 <0>         0.1123
     32 H5         -1.2020   -3.7407   -2.0509 H         1 <0>         0.0601
     33 H6          0.2384   -4.3877   -1.2294 H         1 <0>         0.0792
     34 H7         -1.3293   -4.3598   -0.3870 H         1 <0>         0.0703
     35 H8         -6.1075   -0.6993   -0.5703 H         1 <0>         0.1397
     36 H9         -8.2394   -0.7687    0.6498 H         1 <0>         0.1436
     37 H10        -8.2787   -1.3258    3.0429 H         1 <0>         0.1334
     38 H11        -4.0135   -1.7645    3.0120 H         1 <0>         0.1460
     39 H12        -8.1730   -1.7523    4.8221 H         1 <0>         0.4258
     40 H13        -6.4387   -3.9501    8.9203 H         1 <0>         0.1010
     41 H14        -5.7483   -2.3813    9.3834 H         1 <0>         0.1095
     42 H15        -8.3569   -3.1421    9.9903 H         1 <0>         0.1289
     43 H16        -7.8696   -1.4222    9.7696 H         1 <0>         0.1075
     44 H17        -1.3485    1.9855   -3.0124 H         1 <0>         0.2059
     45 H18        -5.4326    1.0649    0.1775 H         1 <0>         0.4118
     46 H19        -5.5089    2.1329   -1.1171 H         1 <0>         0.4117
@<TRIPOS>BOND
     1    1    2 1
     2    1   28 1
     3    1   29 1
     4    1   30 1
     5    2    3 1
     6    2    4 1
     7    2   31 1
     8    3   32 1
     9    3   33 1
    10    3   34 1
    11    4    8 1
    12    4    5 1
    13    5   26 ar
    14    5    6 ar
    15    6    7 1
    16    6   23 ar
    17    7    8 2
    18    7    9 1
    19    9   14 ar
    20    9   10 ar
    21   10   11 ar
    22   10   35 1
    23   11   12 ar
    24   11   36 1
    25   12   13 ar
    26   12   37 1
    27   13   14 ar
    28   13   15 1
    29   14   38 1
    30   15   16 2
    31   15   17 am
    32   17   18 1
    33   17   39 1
    34   18   22 1
    35   18   19 2
    36   19   20 1
    37   20   21 1
    38   20   40 1
    39   20   41 1
    40   21   22 1
    41   21   42 1
    42   21   43 1
    43   23   24 ar
    44   23   27 1
    45   24   25 ar
    46   25   26 ar
    47   25   44 1
    48   27   45 1
    49   27   46 1
@<TRIPOS>MOLECULE
ZINC36056300
   40    43     0     0     0
SMALL
USER_CHARGES

@<TRIPOS>ATOM
      1 C1          0.4126    0.6880    0.7885 C.3       1 <0>        -0.1627
      2 C2          0.2093   -0.7440    0.2895 C.3       1 <0>         0.1569
      3 C3          0.8826   -1.7211    1.2552 C.3       1 <0>        -0.1634
      4 N1         -1.2243   -1.0374    0.2184 N.pl3     1 <0>        -0.3592
      5 C4         -1.9000   -1.3937   -0.9107 C.ar      1 <0>         0.3794
      6 C5         -3.2446   -1.5828   -0.5400 C.ar      1 <0>        -0.3179
      7 C6         -3.3202   -1.3125    0.8956 C.2       1 <0>         0.1232
      8 N2         -2.1110   -1.0014    1.2998 N.2       1 <0>        -0.2051
      9 C7         -4.5366   -1.3827    1.7391 C.ar      1 <0>         0.1178
     10 C8         -5.4061   -2.4812    1.6050 C.ar      1 <0>        -0.1519
     11 C9         -6.5306   -2.5915    2.3528 C.ar      1 <0>         0.0142
     12 C10        -6.8501   -1.5908    3.2916 C.ar      1 <0>        -0.2346
     13 C11        -5.9500   -0.4370    3.4429 C.ar      1 <0>         0.2401
     14 C12        -4.7906   -0.3737    2.6433 C.ar      1 <0>        -0.1296
     15 N3         -6.4749    0.3393    4.3746 N.pl3     1 <0>        -0.4206
     16 H1         -8.2337    0.1398    5.5248 H         1 <0>         0.4708
     17 N4         -7.6615   -0.2385    4.8390 N.pl3     1 <0>        -0.4328
     18 C13        -7.8916   -1.3947    4.1942 C.2       1 <0>         0.5311
     19 N5         -8.9722   -2.2404    4.3922 N.pl3     1 <0>        -0.7811
     20 C14        -4.1671   -1.9596   -1.5297 C.ar      1 <0>         0.5166
     21 N6         -3.7272   -2.1207   -2.7740 N.ar      1 <0>        -0.5953
     22 C15        -2.4554   -1.9324   -3.0777 C.ar      1 <0>         0.3950
     23 N7         -1.5565   -1.5799   -2.1849 N.ar      1 <0>        -0.5665
     24 N8         -5.4983   -2.1583   -1.2179 N.pl3     1 <0>        -0.8311
     25 H2          1.4792    0.9063    0.8414 H         1 <0>         0.0837
     26 H3         -0.0671    1.3841    0.1005 H         1 <0>         0.0618
     27 H4         -0.0295    0.7936    1.7793 H         1 <0>         0.0688
     28 H5          0.6513   -0.8497   -0.7013 H         1 <0>         0.1176
     29 H6          0.7377   -2.7413    0.8997 H         1 <0>         0.0624
     30 H7          1.9492   -1.5028    1.3081 H         1 <0>         0.0836
     31 H8          0.4405   -1.6155    2.2459 H         1 <0>         0.0694
     32 H9         -5.1717   -3.2546    0.8885 H         1 <0>         0.1568
     33 H10        -7.1810   -3.4447    2.2292 H         1 <0>         0.1566
     34 H11        -4.1097    0.4595    2.7357 H         1 <0>         0.1611
     35 H12        -9.0501   -3.0570    3.8746 H         1 <0>         0.4467
     36 H13        -9.6503   -2.0154    5.0483 H         1 <0>         0.4297
     37 H14        -2.1408   -2.0745   -4.1010 H         1 <0>         0.2111
     38 H15        -5.8569   -1.8183   -0.3832 H         1 <0>         0.4073
     39 H16        -6.0742   -2.6377   -1.8338 H         1 <0>         0.4151
     40 H17        -6.0974    1.1764    4.6871 H         1 <0>         0.4749
@<TRIPOS>BOND
     1    1    2 1
     2    1   25 1
     3    1   26 1
     4    1   27 1
     5    2    3 1
     6    2    4 1
     7    2   28 1
     8    3   29 1
     9    3   30 1
    10    3   31 1
    11    4    8 1
    12    4    5 1
    13    5   23 ar
    14    5    6 ar
    15    6    7 1
    16    6   20 ar
    17    7    8 2
    18    7    9 1
    19    9   14 ar
    20    9   10 ar
    21   10   11 ar
    22   10   32 1
    23   11   12 ar
    24   11   33 1
    25   12   13 ar
    26   12   18 2
    27   13   14 ar
    28   13   15 2
    29   14   34 1
    30   15   17 1
    31   15   40 1
    32   16   17 1
    33   17   18 1
    34   18   19 1
    35   19   35 1
    36   19   36 1
    37   20   21 ar
    38   20   24 1
    39   21   22 ar
    40   22   23 ar
    41   22   37 1
    42   24   38 1
    43   24   39 1
@<TRIPOS>MOLECULE
ZINC36056300
   39    42     0     0     0
SMALL
USER_CHARGES

@<TRIPOS>ATOM
      1 C1          0.4081    0.7032    0.7800 C.3       1 <0>        -0.1618
      2 C2          0.2069   -0.7312    0.2873 C.3       1 <0>         0.1609
      3 C3          0.8807   -1.7032    1.2580 C.3       1 <0>        -0.1621
      4 N1         -1.2263   -1.0267    0.2166 N.pl3     1 <0>        -0.3701
      5 C4         -1.9009   -1.3889   -0.9113 C.ar      1 <0>         0.3750
      6 C5         -3.2455   -1.5776   -0.5407 C.ar      1 <0>        -0.3215
      7 C6         -3.3224   -1.3007    0.8936 C.2       1 <0>         0.1630
      8 N2         -2.1138   -0.9869    1.2972 N.2       1 <0>        -0.2264
      9 C7         -4.5394   -1.3682    1.7366 C.ar      1 <0>         0.0337
     10 C8         -5.4112   -2.4583    1.6155 C.ar      1 <0>        -0.1607
     11 C9         -6.5335   -2.5344    2.3833 C.ar      1 <0>        -0.0251
     12 C10        -6.8222   -1.5187    3.3018 C.ar      1 <0>        -0.1880
     13 C11        -5.9521   -0.4186    3.4315 C.ar      1 <0>         0.1561
     14 C12        -4.8063   -0.3538    2.6457 C.ar      1 <0>        -0.1126
     15 N3         -6.4874    0.3998    4.3930 N.pl3     1 <0>        -0.5024
     16 N4         -7.6751   -0.1655    4.8679 N.2       1 <0>        -0.3148
     17 C13        -7.9109   -1.2946    4.2539 C.2       1 <0>         0.3617
     18 N5         -9.0056   -2.1367    4.4680 N.pl3     1 <0>        -0.8327
     19 C14        -4.1668   -1.9602   -1.5291 C.ar      1 <0>         0.5189
     20 N6         -3.7258   -2.1271   -2.7723 N.ar      1 <0>        -0.6051
     21 C15        -2.4540   -1.9390   -3.0760 C.ar      1 <0>         0.3863
     22 N7         -1.5563   -1.5804   -2.1845 N.ar      1 <0>        -0.5746
     23 N8         -5.4980   -2.1588   -1.2175 N.pl3     1 <0>        -0.8276
     24 H1          1.4744    0.9231    0.8327 H         1 <0>         0.0786
     25 H2         -0.0719    1.3956    0.0885 H         1 <0>         0.0601
     26 H3         -0.0347    0.8128    1.7700 H         1 <0>         0.0697
     27 H4          0.6497   -0.8409   -0.7026 H         1 <0>         0.1118
     28 H5          0.4378   -1.5935    2.2479 H         1 <0>         0.0700
     29 H6          0.7373   -2.7251    0.9069 H         1 <0>         0.0603
     30 H7          1.9470   -1.4833    1.3106 H         1 <0>         0.0785
     31 H8         -5.1917   -3.2441    0.9078 H         1 <0>         0.1359
     32 H9         -7.2005   -3.3779    2.2831 H         1 <0>         0.1334
     33 H10        -4.1302    0.4831    2.7395 H         1 <0>         0.1348
     34 H11        -9.0923   -2.9581    3.9594 H         1 <0>         0.4132
     35 H12        -9.6785   -1.8997    5.1251 H         1 <0>         0.4096
     36 H13        -2.1385   -2.0855   -4.0984 H         1 <0>         0.2050
     37 H14        -5.8568   -1.8182   -0.3831 H         1 <0>         0.4149
     38 H15        -6.0739   -2.6388   -1.8330 H         1 <0>         0.4105
     39 H16        -6.1031    1.2373    4.6959 H         1 <0>         0.4433
@<TRIPOS>BOND
     1    1    2 1
     2    1   24 1
     3    1   25 1
     4    1   26 1
     5    2    3 1
     6    2    4 1
     7    2   27 1
     8    3   28 1
     9    3   29 1
    10    3   30 1
    11    4    8 1
    12    4    5 1
    13    5   22 ar
    14    5    6 ar
    15    6    7 1
    16    6   19 ar
    17    7    8 2
    18    7    9 1
    19    9   14 ar
    20    9   10 ar
    21   10   11 ar
    22   10   31 1
    23   11   12 ar
    24   11   32 1
    25   12   13 ar
    26   12   17 1
    27   13   14 ar
    28   13   15 1
    29   14   33 1
    30   15   16 1
    31   15   39 1
    32   16   17 2
    33   17   18 1
    34   18   34 1
    35   18   35 1
    36   19   20 ar
    37   19   23 1
    38   20   21 ar
    39   21   22 ar
    40   21   36 1
    41   23   37 1
    42   23   38 1
@<TRIPOS>MOLECULE
ZINC64539506
   73    79     0     0     0
SMALL
USER_CHARGES

@<TRIPOS>ATOM
      1 C1         -0.8034    1.1981   -2.0475 C.3       1 <0>        -0.1373
      2 C2         -0.9132   -0.3251   -1.9533 C.3       1 <0>        -0.1439
      3 C3         -1.8869   -0.6921   -0.8632 C.2       1 <0>         0.5116
      4 O1         -2.4388    0.1788   -0.2246 O.2       1 <0>        -0.5400
      5 N1         -2.1445   -1.9882   -0.5981 N.am      1 <0>        -0.6057
      6 C4         -1.4786   -3.0541   -1.3597 C.3       1 <0>         0.0914
      7 C5         -0.7731   -3.9935   -0.3738 C.3       1 <0>         0.1227
      8 N2         -1.7246   -4.3662    0.6825 N.pl3     1 <0>        -0.6412
      9 C6         -2.3905   -3.3002    1.4441 C.3       1 <0>         0.0982
     10 C7         -3.0917   -2.3609    0.4620 C.3       1 <0>         0.0636
     11 C8         -1.9917   -5.7105    0.9575 C.ar      1 <0>         0.2762
     12 C9         -0.9536   -6.5704    1.2942 C.ar      1 <0>        -0.1610
     13 C10        -1.2176   -7.8974    1.5661 C.ar      1 <0>        -0.0493
     14 C11        -2.5211   -8.3734    1.5033 C.ar      1 <0>         0.0715
     15 C12        -3.5587   -7.5142    1.1664 C.ar      1 <0>        -0.0251
     16 C13        -3.2958   -6.1854    0.8999 C.ar      1 <0>        -0.2300
     17 C14        -4.4227   -5.2515    0.5409 C.3       1 <0>         0.5187
     18 F1         -5.5990   -5.9873    0.3618 F         1 <0>        -0.1736
     19 F2         -4.6056   -4.3235    1.5717 F         1 <0>        -0.1666
     20 F3         -4.1097   -4.5767   -0.6439 F         1 <0>        -0.1590
     21 N3         -2.7889   -9.7207    1.7794 N.am      1 <0>        -0.4580
     22 C15        -3.0107  -10.5803    0.7663 C.2       1 <0>         0.5296
     23 O2         -2.9762  -10.1764   -0.3836 O.2       1 <0>        -0.5112
     24 C16        -3.2818  -11.9407    1.0174 C.2       1 <0>        -0.2197
     25 C17        -3.3235  -12.4049    2.2923 C.2       1 <0>         0.0019
     26 C18        -3.0911  -11.5032    3.3608 C.ar      1 <0>        -0.1955
     27 C19        -2.8179  -10.1560    3.0758 C.ar      1 <0>         0.2428
     28 C20        -2.5848   -9.2810    4.1622 C.ar      1 <0>        -0.1182
     29 C21        -2.3121   -7.9243    3.9592 C.ar      1 <0>        -0.1236
     30 C22        -2.0902   -7.1022    5.0517 C.ar      1 <0>        -0.0374
     31 C23        -2.1382   -7.6250    6.3522 C.ar      1 <0>        -0.0785
     32 C24        -2.4020   -8.9415    6.5657 C.ar      1 <0>        -0.0891
     33 C25        -2.6316   -9.8018    5.4788 C.ar      1 <0>         0.1627
     34 N4         -2.8928  -11.1013    5.6841 N.ar      1 <0>        -0.4901
     35 C26        -3.1232  -11.9324    4.7010 C.ar      1 <0>         0.2010
     36 C27        -1.7999   -5.6625    4.8453 C.ar      1 <0>        -0.1016
     37 C28        -1.5923   -4.8284    5.9343 C.ar      1 <0>        -0.0453
     38 C29        -1.3208   -3.4723    5.6840 C.ar      1 <0>        -0.0944
     39 C30        -1.0992   -2.5671    6.7358 C.ar      1 <0>        -0.0959
     40 C31        -0.8385   -1.2607    6.4555 C.ar      1 <0>        -0.1116
     41 C32        -0.7888   -0.8087    5.1382 C.ar      1 <0>        -0.0939
     42 C33        -0.9990   -1.6577    4.0955 C.ar      1 <0>        -0.0952
     43 C34        -1.2702   -3.0147    4.3431 C.ar      1 <0>         0.1182
     44 N5         -1.4790   -3.8675    3.3344 N.ar      1 <0>        -0.4443
     45 C35        -1.7275   -5.1349    3.5462 C.ar      1 <0>         0.0932
     46 H1         -0.0991    1.4635   -2.8359 H         1 <0>         0.0611
     47 H2         -1.7820    1.6193   -2.2775 H         1 <0>         0.0612
     48 H3         -0.4509    1.5965   -1.0961 H         1 <0>         0.0611
     49 H4         -1.2657   -0.7235   -2.9046 H         1 <0>         0.0917
     50 H5          0.0655   -0.7463   -1.7232 H         1 <0>         0.0919
     51 H6         -2.2196   -3.6131   -1.9312 H         1 <0>         0.0768
     52 H7         -0.7449   -2.6165   -2.0367 H         1 <0>         0.0956
     53 H8         -0.4386   -4.8891   -0.8974 H         1 <0>         0.0876
     54 H9          0.0831   -3.4839    0.0682 H         1 <0>         0.0691
     55 H10        -3.1241   -3.7379    2.1211 H         1 <0>         0.1097
     56 H11        -1.6495   -2.7412    2.0156 H         1 <0>         0.1163
     57 H12        -3.4232   -1.4654    0.9877 H         1 <0>         0.0941
     58 H13        -3.9503   -2.8693    0.0232 H         1 <0>         0.0751
     59 H14         0.0599   -6.2005    1.3427 H         1 <0>         0.1551
     60 H15        -0.4106   -8.5659    1.8275 H         1 <0>         0.1467
     61 H16        -4.5721   -7.8845    1.1173 H         1 <0>         0.1487
     62 H17        -3.4573  -12.6157    0.1928 H         1 <0>         0.1630
     63 H18        -3.5312  -13.4462    2.4896 H         1 <0>         0.1550
     64 H19        -2.2745   -7.5207    2.9581 H         1 <0>         0.1643
     65 H20        -1.9630   -6.9732    7.1952 H         1 <0>         0.1371
     66 H21        -2.4352   -9.3272    7.5739 H         1 <0>         0.1467
     67 H22        -3.3290  -12.9695    4.9208 H         1 <0>         0.1769
     68 H23        -1.6383   -5.2094    6.9438 H         1 <0>         0.1431
     69 H24        -1.1358   -2.9058    7.7606 H         1 <0>         0.1315
     70 H25        -0.6683   -0.5656    7.2644 H         1 <0>         0.1300
     71 H26        -0.5805    0.2326    4.9415 H         1 <0>         0.1318
     72 H27        -0.9575   -1.2900    3.0808 H         1 <0>         0.1353
     73 H28        -1.8855   -5.7895    2.7018 H         1 <0>         0.1764
@<TRIPOS>BOND
     1    1    2 1
     2    1   46 1
     3    1   47 1
     4    1   48 1
     5    2    3 1
     6    2   49 1
     7    2   50 1
     8    3    4 2
     9    3    5 am
    10    5   10 1
    11    5    6 1
    12    6    7 1
    13    6   51 1
    14    6   52 1
    15    7    8 1
    16    7   53 1
    17    7   54 1
    18    8    9 1
    19    8   11 1
    20    9   10 1
    21    9   55 1
    22    9   56 1
    23   10   57 1
    24   10   58 1
    25   11   16 ar
    26   11   12 ar
    27   12   13 ar
    28   12   59 1
    29   13   14 ar
    30   13   60 1
    31   14   15 ar
    32   14   21 1
    33   15   16 ar
    34   15   61 1
    35   16   17 1
    36   17   18 1
    37   17   19 1
    38   17   20 1
    39   21   27 1
    40   21   22 am
    41   22   23 2
    42   22   24 1
    43   24   25 2
    44   24   62 1
    45   25   26 1
    46   25   63 1
    47   26   35 ar
    48   26   27 ar
    49   27   28 ar
    50   28   33 ar
    51   28   29 ar
    52   29   30 ar
    53   29   64 1
    54   30   31 ar
    55   30   36 1
    56   31   32 ar
    57   31   65 1
    58   32   33 ar
    59   32   66 1
    60   33   34 ar
    61   34   35 ar
    62   35   67 1
    63   36   45 ar
    64   36   37 ar
    65   37   38 ar
    66   37   68 1
    67   38   43 ar
    68   38   39 ar
    69   39   40 ar
    70   39   69 1
    71   40   41 ar
    72   40   70 1
    73   41   42 ar
    74   41   71 1
    75   42   43 ar
    76   42   72 1
    77   43   44 ar
    78   44   45 ar
    79   45   73 1
@<TRIPOS>MOLECULE
ZINC17148942
   45    48     0     0     0
SMALL
USER_CHARGES
N-(3-methoxyphenyl)-1-methyl-6-morpholino-pyrazolo[4,5-e]pyrimidin-4-amine
@<TRIPOS>ATOM
      1 C1         -3.5146   10.1818    7.1159 C.3       1 <0>         0.1099
      2 N1         -3.3079    8.8588    6.5217 N.pl3     1 <0>        -0.3805
      3 C2         -2.7261    8.6071    5.3148 C.ar      1 <0>         0.3937
      4 C3         -2.7369    7.2085    5.1478 C.ar      1 <0>        -0.3462
      5 C4         -3.3442    6.6596    6.2980 C.2       1 <0>         0.1099
      6 N2         -3.6745    7.6350    7.0956 N.2       1 <0>        -0.2515
      7 C5         -2.1874    6.6705    3.9673 C.ar      1 <0>         0.5340
      8 N3         -1.6796    7.5044    3.0676 N.ar      1 <0>        -0.6124
      9 C6         -1.6946    8.8176    3.2635 C.ar      1 <0>         0.5770
     10 N4         -2.1995    9.3662    4.3555 N.ar      1 <0>        -0.5789
     11 N5         -1.1570    9.6424    2.2909 N.pl3     1 <0>        -0.4554
     12 C7         -2.1432   10.6335    1.8367 C.3       1 <0>         0.0315
     13 C8         -1.4905   11.5604    0.8077 C.3       1 <0>         0.0630
     14 O1         -0.9734   10.7772   -0.2715 O.3       1 <0>        -0.3822
     15 C9         -0.0095    9.8020    0.1351 C.3       1 <0>         0.0594
     16 C10        -0.6472    8.8574    1.1572 C.3       1 <0>         0.0359
     17 N6         -2.1720    5.3052    3.7533 N.pl3     1 <0>        -0.6382
     18 C11        -1.7326    4.7946    2.5284 C.ar      1 <0>         0.1919
     19 C12        -2.0396    5.4593    1.3472 C.ar      1 <0>        -0.1440
     20 C13        -1.6050    4.9549    0.1371 C.ar      1 <0>        -0.0610
     21 C14        -0.8650    3.7881    0.0974 C.ar      1 <0>        -0.2192
     22 C15        -0.5554    3.1201    1.2737 C.ar      1 <0>         0.1471
     23 C16        -0.9941    3.6202    2.4898 C.ar      1 <0>        -0.1778
     24 O2          0.1727    1.9734    1.2329 O.3       1 <0>        -0.3171
     25 C17         0.5864    1.5131   -0.0551 C.3       1 <0>         0.0273
     26 H1         -4.4849   10.5711    6.8075 H         1 <0>         0.0747
     27 H2         -3.4843   10.1009    8.2025 H         1 <0>         0.0916
     28 H3         -2.7284   10.8579    6.7799 H         1 <0>         0.0924
     29 H4         -3.5073    5.6085    6.4851 H         1 <0>         0.1954
     30 H5         -2.9900   10.1214    1.3798 H         1 <0>         0.0551
     31 H6         -2.4881   11.2203    2.6880 H         1 <0>         0.1058
     32 H7         -0.6774   12.1123    1.2791 H         1 <0>         0.0655
     33 H8         -2.2328   12.2613    0.4257 H         1 <0>         0.1071
     34 H9          0.8467   10.3029    0.5869 H         1 <0>         0.0621
     35 H10         0.3195    9.2306   -0.7329 H         1 <0>         0.1067
     36 H11         0.0999    8.1477    1.5126 H         1 <0>         0.1001
     37 H12        -1.4701    8.3169    0.6895 H         1 <0>         0.0657
     38 H13        -2.4662    4.7013    4.4530 H         1 <0>         0.4245
     39 H14        -2.6180    6.3709    1.3755 H         1 <0>         0.1296
     40 H15        -1.8442    5.4729   -0.7798 H         1 <0>         0.1288
     41 H16        -0.5269    3.3960   -0.8504 H         1 <0>         0.1294
     42 H17        -0.7582    3.0990    3.4059 H         1 <0>         0.1334
     43 H18         1.1580    0.5914    0.0548 H         1 <0>         0.1013
     44 H19         1.2085    2.2720   -0.5296 H         1 <0>         0.0572
     45 H20        -0.2916    1.3246   -0.6728 H         1 <0>         0.0570
@<TRIPOS>BOND
     1    1    2 1
     2    1   26 1
     3    1   27 1
     4    1   28 1
     5    2    6 1
     6    2    3 1
     7    3   10 ar
     8    3    4 ar
     9    4    5 1
    10    4    7 ar
    11    5    6 2
    12    5   29 1
    13    7    8 ar
    14    7   17 1
    15    8    9 ar
    16    9   10 ar
    17    9   11 1
    18   11   16 1
    19   11   12 1
    20   12   13 1
    21   12   30 1
    22   12   31 1
    23   13   14 1
    24   13   32 1
    25   13   33 1
    26   14   15 1
    27   15   16 1
    28   15   34 1
    29   15   35 1
    30   16   36 1
    31   16   37 1
    32   17   18 1
    33   17   38 1
    34   18   23 ar
    35   18   19 ar
    36   19   20 ar
    37   19   39 1
    38   20   21 ar
    39   20   40 1
    40   21   22 ar
    41   21   41 1
    42   22   23 ar
    43   22   24 1
    44   23   42 1
    45   24   25 1
    46   25   43 1
    47   25   44 1
    48   25   45 1
@<TRIPOS>MOLECULE
ZINC21873676
   51    54     0     0     0
SMALL
USER_CHARGES

@<TRIPOS>ATOM
      1 C1         -2.6306    1.6879    1.7478 C.3       1 <0>        -0.1434
      2 C2         -2.4747    0.1658    1.7483 C.3       1 <0>         0.0748
      3 H1         -1.5581   -0.1064    1.2251 H         1 <0>         0.0612
      4 C3         -3.6763   -0.4722    1.0419 C.3       1 <0>         0.0985
      5 N1         -3.5981   -1.9309    1.2192 N.pl3     1 <0>        -0.5807
      6 C4         -3.4005   -2.4525    2.5809 C.3       1 <0>         0.0990
      7 C5         -2.2123   -1.7180    3.2123 C.3       1 <0>         0.0755
      8 H2         -1.2947   -1.9979    2.6949 H         1 <0>         0.0619
      9 O1         -2.4139   -0.3075    3.0959 O.3       1 <0>        -0.3745
     10 C6         -2.1025   -2.0994    4.6899 C.3       1 <0>        -0.1435
     11 C7         -3.7076   -2.7869    0.1373 C.ar      1 <0>         0.6463
     12 N2         -3.9877   -2.2762   -1.0562 N.ar      1 <0>        -0.6237
     13 C8         -4.1033   -3.0542   -2.1254 C.ar      1 <0>         0.5458
     14 C9         -3.9220   -4.4430   -1.9691 C.ar      1 <0>        -0.3666
     15 C10        -3.9649   -5.5522   -2.8414 C.2       1 <0>         0.1144
     16 N3         -3.7178   -6.6293   -2.1519 N.2       1 <0>        -0.2604
     17 N4         -3.5025   -6.2913   -0.8099 N.pl3     1 <0>        -0.3853
     18 C11        -3.6265   -4.9395   -0.6849 C.ar      1 <0>         0.4113
     19 N5         -3.5243   -4.0819    0.3294 N.ar      1 <0>        -0.6201
     20 C12        -3.1962   -7.2292    0.2731 C.3       1 <0>         0.1123
     21 N6         -4.3954   -2.5146   -3.3638 N.pl3     1 <0>        -0.6383
     22 C13        -4.4279   -1.1272   -3.5316 C.ar      1 <0>         0.1958
     23 C14        -3.5543   -0.3189   -2.8142 C.ar      1 <0>        -0.1486
     24 C15        -3.5865    1.0518   -2.9801 C.ar      1 <0>        -0.0616
     25 C16        -4.4866    1.6232   -3.8598 C.ar      1 <0>        -0.2221
     26 C17        -5.3611    0.8210   -4.5792 C.ar      1 <0>         0.1479
     27 C18        -5.3287   -0.5555   -4.4192 C.ar      1 <0>        -0.1811
     28 O2         -6.2458    1.3844   -5.4434 O.3       1 <0>        -0.3173
     29 C19        -6.2203    2.8083   -5.5614 C.3       1 <0>         0.0276
     30 H3         -1.7768    2.1407    2.2518 H         1 <0>         0.0686
     31 H4         -2.6787    2.0479    0.7201 H         1 <0>         0.0749
     32 H5         -3.5473    1.9594    2.2712 H         1 <0>         0.0670
     33 H6         -4.6013   -0.0981    1.4808 H         1 <0>         0.0744
     34 H7         -3.6490   -0.2295   -0.0204 H         1 <0>         0.1096
     35 H8         -4.2977   -2.2778    3.1747 H         1 <0>         0.0743
     36 H9         -3.1906   -3.5212    2.5377 H         1 <0>         0.1085
     37 H10        -1.9520   -3.1754    4.7773 H         1 <0>         0.0750
     38 H11        -1.2575   -1.5768    5.1382 H         1 <0>         0.0685
     39 H12        -3.0197   -1.8176    5.2070 H         1 <0>         0.0668
     40 H13        -4.1687   -5.5142   -3.9013 H         1 <0>         0.1926
     41 H14        -2.1161   -7.3515    0.3532 H         1 <0>         0.0724
     42 H15        -3.5885   -6.8399    1.2126 H         1 <0>         0.0896
     43 H16        -3.6563   -8.1939    0.0592 H         1 <0>         0.0898
     44 H17        -4.5779   -3.0986   -4.1165 H         1 <0>         0.4246
     45 H18        -2.8500   -0.7629   -2.1262 H         1 <0>         0.1341
     46 H19        -2.9073    1.6785   -2.4212 H         1 <0>         0.1278
     47 H20        -4.5096    2.6954   -3.9871 H         1 <0>         0.1286
     48 H21        -6.0060   -1.1816   -4.9811 H         1 <0>         0.1331
     49 H22        -6.4325    3.2571   -4.5910 H         1 <0>         0.0569
     50 H23        -5.2351    3.1271   -5.9016 H         1 <0>         0.0569
     51 H24        -6.9740    3.1267   -6.2816 H         1 <0>         0.1010
@<TRIPOS>BOND
     1    1    2 1
     2    1   30 1
     3    1   31 1
     4    1   32 1
     5    2    3 1
     6    2    9 1
     7    2    4 1
     8    4    5 1
     9    4   33 1
    10    4   34 1
    11    5    6 1
    12    5   11 1
    13    6    7 1
    14    6   35 1
    15    6   36 1
    16    7    8 1
    17    7    9 1
    18    7   10 1
    19   10   37 1
    20   10   38 1
    21   10   39 1
    22   11   19 ar
    23   11   12 ar
    24   12   13 ar
    25   13   14 ar
    26   13   21 1
    27   14   18 ar
    28   14   15 1
    29   15   16 2
    30   15   40 1
    31   16   17 1
    32   17   18 1
    33   17   20 1
    34   18   19 ar
    35   20   41 1
    36   20   42 1
    37   20   43 1
    38   21   22 1
    39   21   44 1
    40   22   27 ar
    41   22   23 ar
    42   23   24 ar
    43   23   45 1
    44   24   25 ar
    45   24   46 1
    46   25   26 ar
    47   25   47 1
    48   26   27 ar
    49   26   28 1
    50   27   48 1
    51   28   29 1
    52   29   49 1
    53   29   50 1
    54   29   51 1
@<TRIPOS>MOLECULE
ZINC21873679
   51    54     0     0     0
SMALL
USER_CHARGES
6-[(2S,6S)-2,6-dimethylmorpholin-4-yl]-N-(3-methoxyphenyl)-1-methyl-pyrazolo[4,5-e]pyrimidin-4-amine
@<TRIPOS>ATOM
      1 C1          6.3733    3.3046    1.4646 C.3       1 <0>        -0.1802
      2 C2          5.7077    3.0832    0.1049 C.3       1 <0>         0.0873
      3 H1          5.5737    2.0109   -0.1005 H         1 <0>         0.1134
      4 C3          4.3727    3.8314    0.0614 C.3       1 <0>         0.0431
      5 N1          4.6213    5.2747    0.1888 N.pl3     1 <0>        -0.4517
      6 C4          5.5004    5.7492   -0.8898 C.3       1 <0>         0.0388
      7 C5          6.8241    4.9818   -0.8368 C.3       1 <0>         0.0831
      8 H2          7.3358    5.1303    0.1255 H         1 <0>         0.0760
      9 O1          6.5603    3.5793   -0.9306 O.3       1 <0>        -0.3810
     10 C6          7.7123    5.4139   -2.0052 C.3       1 <0>        -0.1456
     11 C7          3.4326    5.9830    0.2075 C.ar      1 <0>         0.5779
     12 N2          2.2884    5.3143    0.1213 N.ar      1 <0>        -0.6157
     13 C8          1.1216    5.9470    0.1290 C.ar      1 <0>         0.5372
     14 C9          1.1191    7.3515    0.2440 C.ar      1 <0>        -0.3475
     15 C10         0.1124    8.3401    0.2914 C.2       1 <0>         0.1098
     16 N3          0.6831    9.5053    0.4059 N.2       1 <0>        -0.2536
     17 N4          2.0744    9.3479    0.4395 N.pl3     1 <0>        -0.3803
     18 C11         2.3561    8.0178    0.3399 C.ar      1 <0>         0.3932
     19 N5          3.4779    7.2997    0.3177 N.ar      1 <0>        -0.5821
     20 C12         3.0578   10.4270    0.5607 C.3       1 <0>         0.1051
     21 N6         -0.0642    5.2438    0.0322 N.pl3     1 <0>        -0.6512
     22 C13        -0.0426    3.8656   -0.2003 C.ar      1 <0>         0.1981
     23 C14         0.9070    3.3190   -1.0550 C.ar      1 <0>        -0.1462
     24 C15         0.9283    1.9572   -1.2846 C.ar      1 <0>        -0.0611
     25 C16         0.0059    1.1348   -0.6654 C.ar      1 <0>        -0.2211
     26 C17        -0.9486    1.6757    0.1844 C.ar      1 <0>         0.1467
     27 C18        -0.9697    3.0412    0.4219 C.ar      1 <0>        -0.1793
     28 O2         -1.8586    0.8665    0.7876 O.3       1 <0>        -0.3172
     29 C19        -1.7741   -0.5311    0.5018 C.3       1 <0>         0.0242
     30 H3          5.7170    2.9228    2.2606 H         1 <0>         0.0671
     31 H4          6.5471    4.3800    1.6170 H         1 <0>         0.0709
     32 H5          7.3343    2.7701    1.4938 H         1 <0>         0.0626
     33 H6          3.8689    3.6272   -0.8949 H         1 <0>         0.0647
     34 H7          3.7352    3.4925    0.8913 H         1 <0>         0.1007
     35 H8          5.0138    5.5781   -1.8614 H         1 <0>         0.0551
     36 H9          5.6923    6.8245   -0.7601 H         1 <0>         0.1056
     37 H10         8.6631    4.8622   -1.9665 H         1 <0>         0.0707
     38 H11         7.9116    6.4934   -1.9346 H         1 <0>         0.0749
     39 H12         7.2007    5.1968   -2.9545 H         1 <0>         0.0646
     40 H13        -0.9514    8.1605    0.2411 H         1 <0>         0.1948
     41 H14         4.0719   10.0008    0.5597 H         1 <0>         0.0998
     42 H15         2.8901   10.9720    1.5014 H         1 <0>         0.0814
     43 H16         2.9498   11.1185   -0.2880 H         1 <0>         0.0812
     44 H17        -1.0251    5.7686    0.1381 H         1 <0>         0.4500
     45 H18         1.6291    3.9593   -1.5398 H         1 <0>         0.1285
     46 H19         1.6672    1.5341   -1.9489 H         1 <0>         0.1276
     47 H20         0.0253    0.0703   -0.8466 H         1 <0>         0.1286
     48 H21        -1.7089    3.4634    1.0867 H         1 <0>         0.1328
     49 H22        -2.5631   -1.0660    1.0508 H         1 <0>         0.1026
     50 H23        -0.7894   -0.9101    0.8130 H         1 <0>         0.0578
     51 H24        -1.9047   -0.6930   -0.5784 H         1 <0>         0.0577
@<TRIPOS>BOND
     1    1    2 1
     2    1   30 1
     3    1   31 1
     4    1   32 1
     5    2    3 1
     6    2    9 1
     7    2    4 1
     8    4    5 1
     9    4   33 1
    10    4   34 1
    11    5    6 1
    12    5   11 1
    13    6    7 1
    14    6   35 1
    15    6   36 1
    16    7    8 1
    17    7    9 1
    18    7   10 1
    19   10   37 1
    20   10   38 1
    21   10   39 1
    22   11   19 ar
    23   11   12 ar
    24   12   13 ar
    25   13   14 ar
    26   13   21 1
    27   14   18 ar
    28   14   15 1
    29   15   16 2
    30   15   40 1
    31   16   17 1
    32   17   18 1
    33   17   20 1
    34   18   19 ar
    35   20   41 1
    36   20   42 1
    37   20   43 1
    38   21   22 1
    39   21   44 1
    40   22   27 ar
    41   22   23 ar
    42   23   24 ar
    43   23   45 1
    44   24   25 ar
    45   24   46 1
    46   25   26 ar
    47   25   47 1
    48   26   27 ar
    49   26   28 1
    50   27   48 1
    51   28   29 1
    52   29   49 1
    53   29   50 1
    54   29   51 1
@<TRIPOS>MOLECULE
ZINC21873682
   51    54     0     0     0
SMALL
USER_CHARGES
6-[(2R,6R)-2,6-dimethylmorpholin-4-yl]-N-(3-methoxyphenyl)-1-methyl-pyrazolo[4,5-e]pyrimidin-4-amine
@<TRIPOS>ATOM
      1 C1          5.4626    1.5879   -0.1057 C.3       1 <0>        -0.1434
      2 C2          5.7077    3.0833    0.1056 C.3       1 <0>         0.0793
      3 H1          6.2400    3.2677    1.0504 H         1 <0>         0.0723
      4 C3          4.3726    3.8314    0.0615 C.3       1 <0>         0.0441
      5 N1          4.6213    5.2749    0.1878 N.pl3     1 <0>        -0.4518
      6 C4          5.5004    5.7485   -0.8912 C.3       1 <0>         0.0377
      7 C5          6.8241    4.9811   -0.8375 C.3       1 <0>         0.0907
      8 H2          7.4653    5.2264   -1.6970 H         1 <0>         0.1141
      9 O1          6.5604    3.5786   -0.9302 O.3       1 <0>        -0.3811
     10 C6          7.5352    5.2810    0.4836 C.3       1 <0>        -0.1785
     11 C7          3.4325    5.9832    0.2059 C.ar      1 <0>         0.5776
     12 N2          2.2884    5.3143    0.1202 N.ar      1 <0>        -0.6155
     13 C8          1.1215    5.9470    0.1271 C.ar      1 <0>         0.5371
     14 C9          1.1190    7.3517    0.2412 C.ar      1 <0>        -0.3475
     15 C10         0.1123    8.3403    0.2880 C.2       1 <0>         0.1097
     16 N3          0.6831    9.5056    0.4017 N.2       1 <0>        -0.2537
     17 N4          2.0744    9.3482    0.4354 N.pl3     1 <0>        -0.3802
     18 C11         2.3560    8.0180    0.3367 C.ar      1 <0>         0.3930
     19 N5          3.4778    7.2999    0.3151 N.ar      1 <0>        -0.5817
     20 C12         3.0578   10.4274    0.5552 C.3       1 <0>         0.1052
     21 N6         -0.0643    5.2438    0.0304 N.pl3     1 <0>        -0.6512
     22 C13        -0.0425    3.8654   -0.2012 C.ar      1 <0>         0.1981
     23 C14         0.9072    3.3183   -1.0554 C.ar      1 <0>        -0.1459
     24 C15         0.9280    1.9565   -1.2848 C.ar      1 <0>        -0.0607
     25 C16         0.0056    1.1345   -0.6651 C.ar      1 <0>        -0.2210
     26 C17        -0.9484    1.6758    0.1848 C.ar      1 <0>         0.1467
     27 C18        -0.9697    3.0415    0.4215 C.ar      1 <0>        -0.1793
     28 O2         -1.8581    0.8669    0.7889 O.3       1 <0>        -0.3172
     29 C19        -1.7739   -0.5308    0.5037 C.3       1 <0>         0.0242
     30 H3          4.8067    1.2077    0.6913 H         1 <0>         0.0743
     31 H4          6.4225    1.0515   -0.0777 H         1 <0>         0.0687
     32 H5          4.9824    1.4295   -1.0826 H         1 <0>         0.0652
     33 H6          3.8689    3.6264   -0.8946 H         1 <0>         0.0660
     34 H7          3.7351    3.4931    0.8917 H         1 <0>         0.0994
     35 H8          5.0138    5.5766   -1.8626 H         1 <0>         0.0541
     36 H9          5.6923    6.8239   -0.7624 H         1 <0>         0.1068
     37 H10         8.4861    4.7294    0.5216 H         1 <0>         0.0628
     38 H11         6.8964    4.9688    1.3229 H         1 <0>         0.0708
     39 H12         7.7343    6.3604    0.5560 H         1 <0>         0.0689
     40 H13        -0.9515    8.1607    0.2376 H         1 <0>         0.1948
     41 H14         4.0718   10.0011    0.5546 H         1 <0>         0.0997
     42 H15         2.8901   10.9735    1.4952 H         1 <0>         0.0814
     43 H16         2.9498   11.1178   -0.2943 H         1 <0>         0.0812
     44 H17        -1.0252    5.7688    0.1357 H         1 <0>         0.4500
     45 H18         1.6293    3.9584   -1.5406 H         1 <0>         0.1284
     46 H19         1.6666    1.5330   -1.9493 H         1 <0>         0.1273
     47 H20         0.0246    0.0699   -0.8462 H         1 <0>         0.1286
     48 H21        -1.7089    3.4640    1.0859 H         1 <0>         0.1327
     49 H22        -2.5626   -1.0653    1.0534 H         1 <0>         0.1025
     50 H23        -0.7891   -0.9097    0.8144 H         1 <0>         0.0578
     51 H24        -1.9052   -0.6932   -0.5763 H         1 <0>         0.0576
@<TRIPOS>BOND
     1    1    2 1
     2    1   30 1
     3    1   31 1
     4    1   32 1
     5    2    3 1
     6    2    9 1
     7    2    4 1
     8    4    5 1
     9    4   33 1
    10    4   34 1
    11    5    6 1
    12    5   11 1
    13    6    7 1
    14    6   35 1
    15    6   36 1
    16    7    8 1
    17    7    9 1
    18    7   10 1
    19   10   37 1
    20   10   38 1
    21   10   39 1
    22   11   19 ar
    23   11   12 ar
    24   12   13 ar
    25   13   14 ar
    26   13   21 1
    27   14   18 ar
    28   14   15 1
    29   15   16 2
    30   15   40 1
    31   16   17 1
    32   17   18 1
    33   17   20 1
    34   18   19 ar
    35   20   41 1
    36   20   42 1
    37   20   43 1
    38   21   22 1
    39   21   44 1
    40   22   27 ar
    41   22   23 ar
    42   23   24 ar
    43   23   45 1
    44   24   25 ar
    45   24   46 1
    46   25   26 ar
    47   25   47 1
    48   26   27 ar
    49   26   28 1
    50   27   48 1
    51   28   29 1
    52   29   49 1
    53   29   50 1
    54   29   51 1
@<TRIPOS>MOLECULE
ZINC09572854
   47    50     0     0     0
SMALL
USER_CHARGES
N-(3-methoxyphenyl)-1-methyl-6-(1-piperidyl)pyrazolo[4,5-e]pyrimidin-4-amine
@<TRIPOS>ATOM
      1 C1          8.4150    3.7875    0.4673 C.3       1 <0>         0.1104
      2 N1          6.9870    4.0960    0.3590 N.pl3     1 <0>        -0.3815
      3 C2          5.9768    3.1844    0.2752 C.ar      1 <0>         0.3944
      4 C3          4.7786    3.9198    0.1874 C.ar      1 <0>        -0.3484
      5 C4          5.1293    5.2869    0.2231 C.2       1 <0>         0.1097
      6 N2          6.4247    5.3782    0.3237 N.2       1 <0>        -0.2531
      7 C5          3.5641    3.2126    0.0887 C.ar      1 <0>         0.5331
      8 N3          3.6022    1.8855    0.0884 N.ar      1 <0>        -0.6131
      9 C6          4.7552    1.2318    0.1684 C.ar      1 <0>         0.5778
     10 N4          5.9182    1.8539    0.2622 N.ar      1 <0>        -0.5808
     11 N5          4.7387   -0.1519    0.1579 N.pl3     1 <0>        -0.4539
     12 C7          5.5879   -0.6801   -0.9174 C.3       1 <0>         0.0683
     13 C8          5.6615   -2.2049   -0.8087 C.3       1 <0>        -0.1187
     14 C9          4.2497   -2.7880   -0.9149 C.3       1 <0>        -0.1252
     15 C10         3.3729   -2.1852    0.1862 C.3       1 <0>        -0.1219
     16 C11         3.3656   -0.6610    0.0487 C.3       1 <0>         0.0726
     17 N6          2.3600    3.8850   -0.0001 N.pl3     1 <0>        -0.6390
     18 C12         1.1764    3.1735   -0.2167 C.ar      1 <0>         0.1929
     19 C13         1.1724    2.0706   -1.0623 C.ar      1 <0>        -0.1434
     20 C14         0.0028    1.3681   -1.2765 C.ar      1 <0>        -0.0612
     21 C15        -1.1673    1.7628   -0.6557 C.ar      1 <0>        -0.2198
     22 C16        -1.1681    2.8599    0.1942 C.ar      1 <0>         0.1467
     23 C17         0.0036    3.5677    0.4120 C.ar      1 <0>        -0.1781
     24 O1         -2.3182    3.2433    0.8083 O.3       1 <0>        -0.3172
     25 C18        -3.4877    2.4678    0.5380 C.3       1 <0>         0.0275
     26 H1          8.8483    3.7175   -0.5305 H         1 <0>         0.0741
     27 H2          8.9161    4.5777    1.0264 H         1 <0>         0.0910
     28 H3          8.5432    2.8377    0.9865 H         1 <0>         0.0922
     29 H4          4.4399    6.1168    0.1745 H         1 <0>         0.1946
     30 H5          5.1642   -0.4049   -1.8832 H         1 <0>         0.0445
     31 H6          6.5901   -0.2609   -0.8278 H         1 <0>         0.0947
     32 H7          6.0979   -2.4806    0.1513 H         1 <0>         0.0757
     33 H8          6.2792   -2.5979   -1.6162 H         1 <0>         0.0751
     34 H9          4.2927   -3.8705   -0.7946 H         1 <0>         0.0686
     35 H10         3.8278   -2.5454   -1.8902 H         1 <0>         0.0615
     36 H11         3.7732   -2.4607    1.1619 H         1 <0>         0.0724
     37 H12         2.3555   -2.5642    0.0896 H         1 <0>         0.0747
     38 H13         2.7537   -0.2279    0.8399 H         1 <0>         0.0899
     39 H14         2.9524   -0.3861   -0.9217 H         1 <0>         0.0535
     40 H15         2.3361    4.8507    0.0880 H         1 <0>         0.4241
     41 H16         2.0845    1.7626   -1.5518 H         1 <0>         0.1301
     42 H17         0.0016    0.5112   -1.9340 H         1 <0>         0.1279
     43 H18        -2.0812    1.2140   -0.8287 H         1 <0>         0.1289
     44 H19         0.0038    4.4247    1.0693 H         1 <0>         0.1332
     45 H20        -3.7028    2.4951   -0.5302 H         1 <0>         0.0568
     46 H21        -3.3196    1.4366    0.8485 H         1 <0>         0.0570
     47 H22        -4.3326    2.8802    1.0895 H         1 <0>         0.1012
@<TRIPOS>BOND
     1    1    2 1
     2    1   26 1
     3    1   27 1
     4    1   28 1
     5    2    6 1
     6    2    3 1
     7    3   10 ar
     8    3    4 ar
     9    4    5 1
    10    4    7 ar
    11    5    6 2
    12    5   29 1
    13    7    8 ar
    14    7   17 1
    15    8    9 ar
    16    9   10 ar
    17    9   11 1
    18   11   16 1
    19   11   12 1
    20   12   13 1
    21   12   30 1
    22   12   31 1
    23   13   14 1
    24   13   32 1
    25   13   33 1
    26   14   15 1
    27   14   34 1
    28   14   35 1
    29   15   16 1
    30   15   36 1
    31   15   37 1
    32   16   38 1
    33   16   39 1
    34   17   18 1
    35   17   40 1
    36   18   23 ar
    37   18   19 ar
    38   19   20 ar
    39   19   41 1
    40   20   21 ar
    41   20   42 1
    42   21   22 ar
    43   21   43 1
    44   22   23 ar
    45   22   24 1
    46   23   44 1
    47   24   25 1
    48   25   45 1
    49   25   46 1
    50   25   47 1
@<TRIPOS>MOLECULE
ZINC64744203
   44    47     0     0     0
SMALL
USER_CHARGES

@<TRIPOS>ATOM
      1 C1         -0.0055    1.4955    0.4053 C.3       1 <0>        -0.1666
      2 C2          0.0135   -0.0104    0.3513 C.2       1 <0>         0.5025
      3 O1          1.0712   -0.6032    0.3340 O.2       1 <0>        -0.4720
      4 N1         -1.1451   -0.6983    0.3221 N.am      1 <0>        -0.6203
      5 C3         -1.1277   -2.0825    0.2725 C.2       1 <0>         0.3552
      6 N2         -0.0949   -2.8927    0.2531 N.2       1 <0>        -0.4984
      7 C4         -0.2257   -4.2354    0.2035 C.ar      1 <0>         0.0890
      8 C5          0.7997   -5.2108    0.1777 C.ar      1 <0>        -0.0571
      9 C6          0.5046   -6.5350    0.1263 C.ar      1 <0>        -0.0952
     10 C7         -0.8178   -6.9885    0.0974 C.ar      1 <0>         0.0025
     11 C8         -1.8543   -6.0561    0.1220 C.ar      1 <0>        -0.0583
     12 C9         -1.5546   -4.7198    0.1734 C.ar      1 <0>        -0.1363
     13 S1         -2.5055   -3.2199    0.2263 S.3       1 <0>        -0.0053
     14 C10        -1.1138   -8.4409    0.0408 C.ar      1 <0>        -0.0495
     15 C11        -0.0755   -9.3759    0.0214 C.ar      1 <0>        -0.2045
     16 C12        -0.4055  -10.7247   -0.0319 C.ar      1 <0>         0.2566
     17 C13        -1.7471  -11.0932   -0.0639 C.ar      1 <0>         0.1229
     18 N3         -2.7004  -10.1820   -0.0446 N.ar      1 <0>        -0.4446
     19 C14        -2.4313   -8.8932    0.0120 C.ar      1 <0>         0.0216
     20 Cl1        -2.1716  -12.7752   -0.1306 Cl        1 <0>        -0.0448
     21 N4          0.5971  -11.6987   -0.0537 N.2       1 <0>        -1.0618
     22 S2          2.1861  -11.2488   -0.1759 S.o2      1 <0>         2.6037
     23 O2          2.3229  -10.5748   -1.4194 O.2       1 <0>        -1.0221
     24 O3          2.5327  -10.6422    1.0615 O.2       1 <0>        -1.0212
     25 C15         3.1382  -12.7265   -0.2965 C.ar      1 <0>        -0.6279
     26 C16         3.6074  -13.3412    0.8493 C.ar      1 <0>         0.0065
     27 C17         4.3539  -14.5005    0.7560 C.ar      1 <0>        -0.1789
     28 C18         4.6317  -15.0463   -0.4859 C.ar      1 <0>         0.1347
     29 C19         4.1612  -14.4296   -1.6328 C.ar      1 <0>        -0.1789
     30 C20         3.4105  -13.2733   -1.5367 C.ar      1 <0>         0.0067
     31 F1          5.3617  -16.1793   -0.5784 F         1 <0>        -0.1387
     32 H1          1.0175    1.8714    0.4227 H         1 <0>         0.1008
     33 H2         -0.5205    1.8842   -0.4733 H         1 <0>         0.0946
     34 H3         -0.5273    1.8203    1.3055 H         1 <0>         0.0946
     35 H4         -1.9912   -0.2241    0.3359 H         1 <0>         0.4279
     36 H5          1.8329   -4.8968    0.1988 H         1 <0>         0.1353
     37 H6          1.3097   -7.2546    0.1070 H         1 <0>         0.1393
     38 H7         -2.8832   -6.3837    0.1001 H         1 <0>         0.1410
     39 H8          0.9565   -9.0585    0.0469 H         1 <0>         0.1226
     40 H9         -3.2413   -8.1791    0.0311 H         1 <0>         0.1487
     41 H10         3.3909  -12.9152    1.8178 H         1 <0>         0.1477
     42 H11         4.7207  -14.9804    1.6512 H         1 <0>         0.1402
     43 H12         4.3776  -14.8542   -2.6020 H         1 <0>         0.1402
     44 H13         3.0396  -12.7946   -2.4309 H         1 <0>         0.1477
@<TRIPOS>BOND
     1    1    2 1
     2    1   32 1
     3    1   33 1
     4    1   34 1
     5    2    3 2
     6    2    4 am
     7    4    5 1
     8    4   35 1
     9    5   13 1
    10    5    6 2
    11    6    7 1
    12    7   12 ar
    13    7    8 ar
    14    8    9 ar
    15    8   36 1
    16    9   10 ar
    17    9   37 1
    18   10   11 ar
    19   10   14 1
    20   11   12 ar
    21   11   38 1
    22   12   13 1
    23   14   19 ar
    24   14   15 ar
    25   15   16 ar
    26   15   39 1
    27   16   17 ar
    28   16   21 1
    29   17   18 ar
    30   17   20 1
    31   18   19 ar
    32   19   40 1
    33   21   22 1
    34   22   23 2
    35   22   24 2
    36   22   25 1
    37   25   30 ar
    38   25   26 ar
    39   26   27 ar
    40   26   41 1
    41   27   28 ar
    42   27   42 1
    43   28   29 ar
    44   28   31 1
    45   29   30 ar
    46   29   43 1
    47   30   44 1
@<TRIPOS>MOLECULE
ZINC43154043
   48    51     0     0     0
SMALL
USER_CHARGES

@<TRIPOS>ATOM
      1 C1         -4.2370   -8.6810    0.2591 C.3       1 <0>         0.0402
      2 O1         -5.2414   -7.8807    0.8858 O.3       1 <0>        -0.3083
      3 C2         -5.1728   -6.5393    0.6880 C.ar      1 <0>         0.3030
      4 C3         -6.1186   -5.7097    1.2767 C.ar      1 <0>        -0.1694
      5 C4         -6.0406   -4.3442    1.0695 C.ar      1 <0>        -0.0370
      6 C5         -5.0084   -3.8520    0.2724 C.ar      1 <0>         0.0749
      7 C6         -4.1005   -4.7415   -0.2823 C.ar      1 <0>         0.1137
      8 N1         -4.2036   -6.0378   -0.0581 N.ar      1 <0>        -0.5202
      9 N2         -4.8900   -2.4770    0.0346 N.pl3     1 <0>        -0.6438
     10 C7         -6.0272   -1.6894   -0.0608 C.ar      1 <0>         0.4764
     11 C8         -5.9196   -0.3039   -0.1708 C.ar      1 <0>        -0.3335
     12 C9         -7.0901    0.4457   -0.2639 C.ar      1 <0>         0.3131
     13 N3         -8.2659   -0.1836   -0.2449 N.ar      1 <0>        -0.6001
     14 C10        -8.3274   -1.5014   -0.1392 C.ar      1 <0>         0.6160
     15 N4         -7.2351   -2.2464   -0.0541 N.ar      1 <0>        -0.6192
     16 N5         -9.5662   -2.1185   -0.1228 N.pl3     1 <0>        -0.5851
     17 C11       -10.8056   -1.3321   -0.2271 C.3       1 <0>         0.0943
     18 C12       -11.6771   -1.9470   -1.3281 C.3       1 <0>         0.0461
     19 O2        -11.8321   -3.3462   -1.0794 O.3       1 <0>        -0.3792
     20 C13       -10.6090   -4.0857   -1.1132 C.3       1 <0>         0.0471
     21 C14        -9.6826   -3.5808   -0.0069 C.3       1 <0>         0.0925
     22 C15        -7.0297    1.9221   -0.3821 C.ar      1 <0>        -0.2311
     23 C16        -5.8015    2.5894   -0.4083 C.ar      1 <0>         0.2302
     24 N6         -5.7892    3.9058   -0.5150 N.ar      1 <0>        -0.5711
     25 C17        -6.9204    4.5923   -0.5967 C.ar      1 <0>         0.5762
     26 N7         -8.1042    3.9957   -0.5753 N.ar      1 <0>        -0.5734
     27 C18        -8.1993    2.6820   -0.4761 C.ar      1 <0>         0.2470
     28 N8         -6.8641    5.9688   -0.7069 N.pl3     1 <0>        -0.8125
     29 H1         -4.4079   -9.7308    0.4974 H         1 <0>         0.0965
     30 H2         -4.2827   -8.5415   -0.8209 H         1 <0>         0.0585
     31 H3         -3.2542   -8.3812    0.6229 H         1 <0>         0.0585
     32 H4         -6.9055   -6.1256    1.8884 H         1 <0>         0.1443
     33 H5         -6.7625   -3.6754    1.5145 H         1 <0>         0.1503
     34 H6         -3.2977   -4.3687   -0.9011 H         1 <0>         0.1594
     35 H7         -4.0124   -2.0755   -0.0635 H         1 <0>         0.4243
     36 H8         -4.9524    0.1766   -0.1831 H         1 <0>         0.1422
     37 H9        -11.3396   -1.3608    0.7227 H         1 <0>         0.0755
     38 H10       -10.5652   -0.3001   -0.4826 H         1 <0>         0.1081
     39 H11       -12.6556   -1.4667   -1.3287 H         1 <0>         0.1086
     40 H12       -11.1982   -1.8001   -2.2962 H         1 <0>         0.0552
     41 H13       -10.8191   -5.1441   -0.9592 H         1 <0>         0.1082
     42 H14       -10.1262   -3.9466   -2.0805 H         1 <0>         0.0542
     43 H15        -8.6989   -4.0372   -0.1166 H         1 <0>         0.1066
     44 H16       -10.1016   -3.8397    0.9655 H         1 <0>         0.0748
     45 H17        -4.8762    2.0365   -0.3418 H         1 <0>         0.1733
     46 H18        -9.1669    2.2023   -0.4638 H         1 <0>         0.1793
     47 H19        -6.0052    6.4193   -0.7236 H         1 <0>         0.4174
     48 H20        -7.6835    6.4845   -0.7676 H         1 <0>         0.4177
@<TRIPOS>BOND
     1    1    2 1
     2    1   29 1
     3    1   30 1
     4    1   31 1
     5    2    3 1
     6    3    8 ar
     7    3    4 ar
     8    4    5 ar
     9    4   32 1
    10    5    6 ar
    11    5   33 1
    12    6    7 ar
    13    6    9 1
    14    7    8 ar
    15    7   34 1
    16    9   10 1
    17    9   35 1
    18   10   15 ar
    19   10   11 ar
    20   11   12 ar
    21   11   36 1
    22   12   13 ar
    23   12   22 1
    24   13   14 ar
    25   14   15 ar
    26   14   16 1
    27   16   21 1
    28   16   17 1
    29   17   18 1
    30   17   37 1
    31   17   38 1
    32   18   19 1
    33   18   39 1
    34   18   40 1
    35   19   20 1
    36   20   21 1
    37   20   41 1
    38   20   42 1
    39   21   43 1
    40   21   44 1
    41   22   27 ar
    42   22   23 ar
    43   23   24 ar
    44   23   45 1
    45   24   25 ar
    46   25   26 ar
    47   25   28 1
    48   26   27 ar
    49   27   46 1
    50   28   47 1
    51   28   48 1
@<TRIPOS>MOLECULE
ZINC43154043
   49    52     0     0     0
SMALL
USER_CHARGES

@<TRIPOS>ATOM
      1 C1          2.8334   -8.5330   -3.4328 C.3       1 <0>         0.0358
      2 O1          2.7629   -7.8179   -4.6680 O.3       1 <0>        -0.3005
      3 C2          2.6963   -6.4639   -4.5934 C.ar      1 <0>         0.3317
      4 C3          2.6204   -5.7153   -5.7609 C.ar      1 <0>        -0.1751
      5 C4          2.5529   -4.3363   -5.6748 C.ar      1 <0>        -0.0295
      6 C5          2.5639   -3.7491   -4.4106 C.ar      1 <0>         0.0184
      7 C6          2.6416   -4.5614   -3.2893 C.ar      1 <0>         0.1492
      8 N1          2.6992   -5.8741   -3.4103 N.ar      1 <0>        -0.5191
      9 N2          2.4978   -2.3568   -4.2747 N.pl3     1 <0>        -0.5913
     10 C7          3.1159   -1.5390   -5.2083 C.ar      1 <0>         0.5226
     11 C8          3.1156   -0.1546   -5.0447 C.ar      1 <0>        -0.2790
     12 C9          3.7494    0.6262   -6.0088 C.ar      1 <0>         0.3313
     13 N3          4.3309    0.0264   -7.0485 N.ar      1 <0>        -0.5826
     14 C10         4.3097   -1.2913   -7.1694 C.ar      1 <0>         0.6641
     15 N4          3.7218   -2.0653   -6.2691 N.ar      1 <0>        -0.5765
     16 N5          4.9239   -1.8771   -8.2627 N.pl3     1 <0>        -0.5686
     17 C11         5.7133   -1.0730   -9.2091 C.3       1 <0>         0.0642
     18 C12         7.0756   -1.7496   -9.3994 C.3       1 <0>         0.0475
     19 O2          6.8752   -3.1221   -9.7456 O.3       1 <0>        -0.3639
     20 C13         6.2136   -3.8895   -8.7371 C.3       1 <0>         0.0433
     21 C14         4.8118   -3.3234   -8.5097 C.3       1 <0>         0.0797
     22 C15         3.7766    2.1027   -5.8812 C.ar      1 <0>        -0.2974
     23 C16         4.4053    2.8941   -6.8470 C.ar      1 <0>         0.2461
     24 N6          4.4079    4.2065   -6.6980 N.ar      1 <0>        -0.5570
     25 C17         3.8251    4.7734   -5.6508 C.ar      1 <0>         0.6029
     26 N7          3.2191    4.0570   -4.7143 N.ar      1 <0>        -0.5575
     27 C18         3.1693    2.7396   -4.7949 C.ar      1 <0>         0.2711
     28 N8          3.8505    6.1502   -5.5318 N.pl3     1 <0>        -0.7868
     29 H1          3.7244   -8.2257   -2.8854 H         1 <0>         0.0633
     30 H2          1.9474   -8.3158   -2.8362 H         1 <0>         0.0639
     31 H3          2.8820   -9.6031   -3.6348 H         1 <0>         0.1042
     32 H4          2.6144   -6.2038   -6.7241 H         1 <0>         0.1531
     33 H5          2.4934   -3.7291   -6.5659 H         1 <0>         0.1561
     34 H6          2.6507   -4.1148   -2.3060 H         1 <0>         0.1673
     35 H7          2.0196   -1.9646   -3.5274 H         1 <0>         0.4395
     36 H8          2.6355    0.3015   -4.1915 H         1 <0>         0.1843
     37 H9          5.1941   -1.0175  -10.1658 H         1 <0>         0.1137
     38 H10         5.8547   -0.0690   -8.8088 H         1 <0>         0.0875
     39 H11         7.6224   -1.2487  -10.1983 H         1 <0>         0.1261
     40 H12         7.6457   -1.6874   -8.4724 H         1 <0>         0.0657
     41 H13         6.1403   -4.9282   -9.0594 H         1 <0>         0.1256
     42 H14         6.7805   -3.8352   -7.8077 H         1 <0>         0.0648
     43 H15         4.3566   -3.8091   -7.6465 H         1 <0>         0.1211
     44 H16         4.2003   -3.4984   -9.3949 H         1 <0>         0.1021
     45 H17         4.8823    2.4390   -7.7024 H         1 <0>         0.1660
     46 H18         2.6699    2.1625   -4.0307 H         1 <0>         0.1859
     47 H19         4.2905    6.6875   -6.2090 H         1 <0>         0.4269
     48 H20         3.4284    6.5791   -4.7711 H         1 <0>         0.4278
     49 H21         4.7744    0.5625   -7.7244 H         1 <0>         0.4319
@<TRIPOS>BOND
     1    1    2 1
     2    1   29 1
     3    1   30 1
     4    1   31 1
     5    2    3 1
     6    3    8 ar
     7    3    4 ar
     8    4    5 ar
     9    4   32 1
    10    5    6 ar
    11    5   33 1
    12    6    7 ar
    13    6    9 1
    14    7    8 ar
    15    7   34 1
    16    9   10 1
    17    9   35 1
    18   10   15 ar
    19   10   11 ar
    20   11   12 ar
    21   11   36 1
    22   12   13 ar
    23   12   22 1
    24   13   14 ar
    25   13   49 1
    26   14   15 ar
    27   14   16 1
    28   16   21 1
    29   16   17 1
    30   17   18 1
    31   17   37 1
    32   17   38 1
    33   18   19 1
    34   18   39 1
    35   18   40 1
    36   19   20 1
    37   20   21 1
    38   20   41 1
    39   20   42 1
    40   21   43 1
    41   21   44 1
    42   22   27 ar
    43   22   23 ar
    44   23   24 ar
    45   23   45 1
    46   24   25 ar
    47   25   26 ar
    48   25   28 1
    49   26   27 ar
    50   27   46 1
    51   28   47 1
    52   28   48 1
@<TRIPOS>MOLECULE
ZINC66074200
   45    48     0     0     0
SMALL
USER_CHARGES

@<TRIPOS>ATOM
      1 C1         -0.0225    1.8097    0.0120 C.3       1 <0>        -0.6648
      2 S1          0.0021   -0.0041    0.0020 S.o2      1 <0>         2.6016
      3 O1          0.8352   -0.4880    1.0465 O.2       1 <0>        -0.9124
      4 O2         -1.3147   -0.5105   -0.1678 O.2       1 <0>        -0.9387
      5 N1          0.7947   -0.4113   -1.3938 N.pl3     1 <0>        -0.9169
      6 C2          0.1492   -0.6226   -2.6929 C.3       1 <0>         0.1124
      7 C3          1.2943   -0.9755   -3.6581 C.3       1 <0>        -0.0668
      8 C4          2.5336   -0.9334   -2.7973 C.ar      1 <0>        -0.2886
      9 C5          2.1611   -0.5948   -1.5022 C.ar      1 <0>         0.4616
     10 N2          3.1182   -0.4975   -0.5739 N.ar      1 <0>        -0.5869
     11 C6          4.3875   -0.7137   -0.8776 C.ar      1 <0>         0.6105
     12 N3          4.7730   -1.0340   -2.1025 N.ar      1 <0>        -0.5767
     13 C7          3.8756   -1.1584   -3.0828 C.ar      1 <0>         0.3187
     14 C8          4.3043   -1.5162   -4.4559 C.ar      1 <0>        -0.2271
     15 C9          3.4946   -2.3072   -5.2763 C.ar      1 <0>         0.2265
     16 N4          3.9116   -2.6046   -6.4938 N.ar      1 <0>        -0.5684
     17 C10         5.0797   -2.1635   -6.9394 C.ar      1 <0>         0.5755
     18 N5          5.8754   -1.4118   -6.1915 N.ar      1 <0>        -0.5711
     19 C11         5.5260   -1.0665   -4.9654 C.ar      1 <0>         0.2446
     20 N6          5.4794   -2.4972   -8.2197 N.pl3     1 <0>        -0.8130
     21 N7          5.3430   -0.6007    0.1173 N.pl3     1 <0>        -0.5828
     22 C12         4.9637   -0.2523    1.4957 C.3       1 <0>         0.0877
     23 C13         5.6035   -1.2714    2.4454 C.3       1 <0>         0.0472
     24 O3          7.0047   -1.3529    2.1738 O.3       1 <0>        -0.3802
     25 C14         7.3200   -1.8170    0.8590 C.3       1 <0>         0.0464
     26 C15         6.7675   -0.8313   -0.1708 C.3       1 <0>         0.0935
     27 H1          1.0001    2.1870    0.0043 H         1 <0>         0.1314
     28 H2         -0.5497    2.1708   -0.8711 H         1 <0>         0.1299
     29 H3         -0.5327    2.1613    0.9088 H         1 <0>         0.1368
     30 H4         -0.5620   -1.4464   -2.6324 H         1 <0>         0.1015
     31 H5         -0.3528    0.2885   -3.0186 H         1 <0>         0.0926
     32 H6          1.1508   -1.9741   -4.0709 H         1 <0>         0.0926
     33 H7          1.3602   -0.2375   -4.4575 H         1 <0>         0.0940
     34 H8          2.5420   -2.6702   -4.9196 H         1 <0>         0.1732
     35 H9          6.1769   -0.4497   -4.3635 H         1 <0>         0.1750
     36 H10         4.9079   -3.0468   -8.7784 H         1 <0>         0.4175
     37 H11         6.3315   -2.1818   -8.5594 H         1 <0>         0.4176
     38 H12         5.3243    0.7483    1.7340 H         1 <0>         0.0750
     39 H13         3.8790   -0.2861    1.5977 H         1 <0>         0.1166
     40 H14         5.4504   -0.9540    3.4769 H         1 <0>         0.1089
     41 H15         5.1457   -2.2488    2.2928 H         1 <0>         0.0565
     42 H16         8.4019   -1.8920    0.7490 H         1 <0>         0.1087
     43 H17         6.8684   -2.7963    0.7005 H         1 <0>         0.0551
     44 H18         6.8767   -1.2484   -1.1719 H         1 <0>         0.1086
     45 H19         7.3128    0.1100   -0.1032 H         1 <0>         0.0762
@<TRIPOS>BOND
     1    1    2 1
     2    1   27 1
     3    1   28 1
     4    1   29 1
     5    2    3 2
     6    2    4 2
     7    2    5 1
     8    5    9 1
     9    5    6 1
    10    6    7 1
    11    6   30 1
    12    6   31 1
    13    7    8 1
    14    7   32 1
    15    7   33 1
    16    8   13 ar
    17    8    9 ar
    18    9   10 ar
    19   10   11 ar
    20   11   12 ar
    21   11   21 1
    22   12   13 ar
    23   13   14 1
    24   14   19 ar
    25   14   15 ar
    26   15   16 ar
    27   15   34 1
    28   16   17 ar
    29   17   18 ar
    30   17   20 1
    31   18   19 ar
    32   19   35 1
    33   20   36 1
    34   20   37 1
    35   21   26 1
    36   21   22 1
    37   22   23 1
    38   22   38 1
    39   22   39 1
    40   23   24 1
    41   23   40 1
    42   23   41 1
    43   24   25 1
    44   25   26 1
    45   25   42 1
    46   25   43 1
    47   26   44 1
    48   26   45 1
@<TRIPOS>MOLECULE
ZINC71319188
   47    50     0     0     0
SMALL
USER_CHARGES

@<TRIPOS>ATOM
      1 C1         -0.0187    1.5258    0.0104 C.3       1 <0>        -0.1556
      2 C2          0.0021   -0.0041    0.0020 C.3       1 <0>         0.0656
      3 O1         -1.3386   -0.4987    0.0122 O.3       1 <0>        -0.3588
      4 C3         -1.4972   -1.8391    0.0065 C.2       1 <0>         0.5518
      5 O2         -0.5221   -2.5673   -0.0067 O.2       1 <0>        -0.5107
      6 C4         -2.7978   -2.3979    0.0159 C.2       1 <0>        -0.1561
      7 C5         -3.1227   -3.7456    0.0179 C.2       1 <0>         0.1518
      8 N1         -4.4411   -3.8529    0.0280 N.2       1 <0>        -0.5016
      9 C6         -4.9939   -2.6406    0.0328 C.2       1 <0>         0.2560
     10 N2         -3.9970   -1.7071    0.0311 N.pl3     1 <0>        -0.3230
     11 C7         -4.2867   -0.3805    0.0402 C.2       1 <0>         0.0726
     12 C8         -5.5823    0.0454    0.0551 C.2       1 <0>        -0.0309
     13 C9         -6.6320   -0.8979    0.0606 C.2       1 <0>        -0.0562
     14 C10        -6.3391   -2.2265    0.0427 C.2       1 <0>        -0.0968
     15 C11        -5.8876    1.4978    0.0660 C.ar      1 <0>        -0.0729
     16 C12        -6.5152    2.0817    1.1682 C.ar      1 <0>        -0.1230
     17 C13        -6.7787    3.4466    1.1289 C.ar      1 <0>         0.2383
     18 C14        -6.4111    4.1747    0.0033 C.ar      1 <0>        -0.0343
     19 N3         -5.8204    3.5889   -1.0192 N.ar      1 <0>        -0.4401
     20 C15        -5.5471    2.3001   -1.0211 C.ar      1 <0>         0.0070
     21 N4         -7.4052    4.0778    2.2066 N.2       1 <0>        -1.0808
     22 S1         -7.7140    5.7037    2.1484 S.o2      1 <0>         2.6041
     23 O3         -6.4520    6.3568    2.1443 O.2       1 <0>        -1.0254
     24 O4         -8.6756    5.8980    1.1204 O.2       1 <0>        -1.0251
     25 C16        -8.5014    6.1390    3.6633 C.ar      1 <0>        -0.6158
     26 C17        -9.8788    6.0838    3.7672 C.ar      1 <0>        -0.0244
     27 C18       -10.4966    6.4253    4.9557 C.ar      1 <0>        -0.1472
     28 C19        -9.7370    6.8217    6.0405 C.ar      1 <0>        -0.0828
     29 C20        -8.3596    6.8760    5.9370 C.ar      1 <0>        -0.1473
     30 C21        -7.7415    6.5304    4.7498 C.ar      1 <0>        -0.0246
     31 H1          1.0039    1.9031    0.0027 H         1 <0>         0.0798
     32 H2         -0.5459    1.8868   -0.8726 H         1 <0>         0.0690
     33 H3         -0.5289    1.8773    0.9072 H         1 <0>         0.0690
     34 H4          0.5123   -0.3556   -0.8948 H         1 <0>         0.0678
     35 H5          0.5293   -0.3651    0.8851 H         1 <0>         0.0677
     36 H6         -2.4207   -4.5663    0.0117 H         1 <0>         0.1967
     37 H7         -3.4849    0.3430    0.0360 H         1 <0>         0.1791
     38 H8         -7.6602   -0.5676    0.0723 H         1 <0>         0.1544
     39 H9         -7.1332   -2.9584    0.0482 H         1 <0>         0.1599
     40 H10        -6.7890    1.4890    2.0285 H         1 <0>         0.1275
     41 H11        -6.6127    5.2351   -0.0343 H         1 <0>         0.1292
     42 H12        -5.0577    1.8595   -1.8772 H         1 <0>         0.1374
     43 H13       -10.4722    5.7742    2.9196 H         1 <0>         0.1364
     44 H14       -11.5727    6.3829    5.0366 H         1 <0>         0.1263
     45 H15       -10.2197    7.0892    6.9689 H         1 <0>         0.1235
     46 H16        -7.7662    7.1860    6.7844 H         1 <0>         0.1261
     47 H17        -6.6652    6.5693    4.6700 H         1 <0>         0.1362
@<TRIPOS>BOND
     1    1    2 1
     2    1   31 1
     3    1   32 1
     4    1   33 1
     5    2    3 1
     6    2   34 1
     7    2   35 1
     8    3    4 1
     9    4    5 2
    10    4    6 1
    11    6   10 1
    12    6    7 2
    13    7    8 1
    14    7   36 1
    15    8    9 2
    16    9   14 1
    17    9   10 1
    18   10   11 1
    19   11   12 2
    20   11   37 1
    21   12   13 1
    22   12   15 1
    23   13   14 2
    24   13   38 1
    25   14   39 1
    26   15   20 ar
    27   15   16 ar
    28   16   17 ar
    29   16   40 1
    30   17   18 ar
    31   17   21 1
    32   18   19 ar
    33   18   41 1
    34   19   20 ar
    35   20   42 1
    36   21   22 1
    37   22   23 2
    38   22   24 2
    39   22   25 1
    40   25   30 ar
    41   25   26 ar
    42   26   27 ar
    43   26   43 1
    44   27   28 ar
    45   27   44 1
    46   28   29 ar
    47   28   45 1
    48   29   30 ar
    49   29   46 1
    50   30   47 1
@<TRIPOS>MOLECULE
ZINC71318831
   47    51     0     0     0
SMALL
USER_CHARGES

@<TRIPOS>ATOM
      1 C1          0.2267    1.2917    3.1105 C.ar      1 <0>        -0.1048
      2 C2          0.7883    2.0335    2.0872 C.ar      1 <0>        -0.0492
      3 C3          1.3809    1.3967    1.0124 C.ar      1 <0>        -0.1770
      4 C4          1.4134    0.0169    0.9574 C.ar      1 <0>        -0.0607
      5 C5          0.8504   -0.7308    1.9832 C.ar      1 <0>         0.1153
      6 C6          0.2562   -0.0880    3.0617 C.ar      1 <0>        -0.0726
      7 N1          0.8813   -2.1292    1.9303 N.am      1 <0>        -0.4650
      8 C7          1.9425   -2.7946    2.4261 C.2       1 <0>         0.5305
      9 O1          2.8677   -2.1707    2.9170 O.2       1 <0>        -0.5127
     10 C8          1.9975   -4.2027    2.3852 C.2       1 <0>        -0.2210
     11 C9          0.9748   -4.9109    1.8422 C.2       1 <0>         0.0033
     12 C10        -0.1435   -4.2143    1.3195 C.ar      1 <0>        -0.1948
     13 C11        -0.1693   -2.8122    1.3805 C.ar      1 <0>         0.2404
     14 C12        -1.3002   -2.1448    0.8557 C.ar      1 <0>        -0.1170
     15 C13        -1.3968   -0.7495    0.8750 C.ar      1 <0>        -0.1287
     16 C14        -2.5222   -0.1364    0.3498 C.ar      1 <0>        -0.0197
     17 C15        -3.5579   -0.9075   -0.1974 C.ar      1 <0>        -0.0774
     18 C16        -3.4791   -2.2645   -0.2231 C.ar      1 <0>        -0.0904
     19 C17        -2.3506   -2.9170    0.3011 C.ar      1 <0>         0.1577
     20 N2         -2.2672   -4.2555    0.2770 N.ar      1 <0>        -0.4883
     21 C18        -1.2302   -4.9002    0.7452 C.ar      1 <0>         0.1970
     22 C19        -2.6328    1.3425    0.3668 C.ar      1 <0>        -0.1697
     23 C20        -3.8678    1.9592    0.6001 C.ar      1 <0>        -0.0151
     24 C21        -3.9221    3.3386    0.6066 C.ar      1 <0>        -0.2349
     25 C22        -2.7560    4.0659    0.3826 C.ar      1 <0>         0.4102
     26 N3         -1.6034    3.4512    0.1646 N.ar      1 <0>        -0.5346
     27 C23        -1.5090    2.1365    0.1567 C.ar      1 <0>         0.1618
     28 N4         -2.8024    5.4544    0.3876 N.pl3     1 <0>        -0.8471
     29 C24         1.9916    2.2090   -0.1004 C.3       1 <0>         0.5102
     30 F1          1.8362    3.5713    0.1772 F         1 <0>        -0.1642
     31 F2          3.3535    1.9068   -0.2051 F         1 <0>        -0.1718
     32 F3          1.3520    1.9028   -1.3064 F         1 <0>        -0.1720
     33 H1         -0.2315    1.7920    3.9508 H         1 <0>         0.1508
     34 H2          0.7635    3.1124    2.1275 H         1 <0>         0.1536
     35 H3          1.8758   -0.4799    0.1173 H         1 <0>         0.1444
     36 H4         -0.1825   -0.6667    3.8611 H         1 <0>         0.1432
     37 H5          2.8564   -4.7197    2.7871 H         1 <0>         0.1630
     38 H6          1.0128   -5.9897    1.8085 H         1 <0>         0.1550
     39 H7         -0.5999   -0.1548    1.2966 H         1 <0>         0.1586
     40 H8         -4.4300   -0.4167   -0.6036 H         1 <0>         0.1365
     41 H9         -4.2863   -2.8427   -0.6478 H         1 <0>         0.1451
     42 H10        -1.2128   -5.9792    0.7016 H         1 <0>         0.1761
     43 H11        -4.7567    1.3699    0.7705 H         1 <0>         0.1373
     44 H12        -4.8581    3.8477    0.7829 H         1 <0>         0.1350
     45 H13        -0.5508    1.6705   -0.0194 H         1 <0>         0.1482
     46 H14        -3.6434    5.9110    0.5463 H         1 <0>         0.4097
     47 H15        -1.9939    5.9673    0.2323 H         1 <0>         0.4063
@<TRIPOS>BOND
     1    1    6 ar
     2    1    2 ar
     3    1   33 1
     4    2    3 ar
     5    2   34 1
     6    3    4 ar
     7    3   29 1
     8    4    5 ar
     9    4   35 1
    10    5    6 ar
    11    5    7 1
    12    6   36 1
    13    7   13 1
    14    7    8 am
    15    8    9 2
    16    8   10 1
    17   10   11 2
    18   10   37 1
    19   11   12 1
    20   11   38 1
    21   12   21 ar
    22   12   13 ar
    23   13   14 ar
    24   14   19 ar
    25   14   15 ar
    26   15   16 ar
    27   15   39 1
    28   16   17 ar
    29   16   22 1
    30   17   18 ar
    31   17   40 1
    32   18   19 ar
    33   18   41 1
    34   19   20 ar
    35   20   21 ar
    36   21   42 1
    37   22   27 ar
    38   22   23 ar
    39   23   24 ar
    40   23   43 1
    41   24   25 ar
    42   24   44 1
    43   25   26 ar
    44   25   28 1
    45   26   27 ar
    46   27   45 1
    47   28   46 1
    48   28   47 1
    49   29   30 1
    50   29   31 1
    51   29   32 1
@<TRIPOS>MOLECULE
ZINC71318831
   48    52     0     0     0
SMALL
USER_CHARGES

@<TRIPOS>ATOM
      1 C1          0.2240    1.2917    3.1082 C.ar      1 <0>        -0.1055
      2 C2          0.7886    2.0335    2.0865 C.ar      1 <0>        -0.0699
      3 C3          1.3842    1.3968    1.0134 C.ar      1 <0>        -0.1869
      4 C4          1.4167    0.0169    0.9584 C.ar      1 <0>        -0.0576
      5 C5          0.8507   -0.7307    1.9826 C.ar      1 <0>         0.1208
      6 C6          0.2535   -0.0880    3.0594 C.ar      1 <0>        -0.0709
      7 N1          0.8816   -2.1292    1.9297 N.am      1 <0>        -0.4702
      8 C7          1.9429   -2.7946    2.4252 C.2       1 <0>         0.5309
      9 O1          2.8682   -2.1706    2.9160 O.2       1 <0>        -0.5022
     10 C8          1.9979   -4.2027    2.3844 C.2       1 <0>        -0.2090
     11 C9          0.9751   -4.9109    1.8416 C.2       1 <0>        -0.0011
     12 C10        -0.1433   -4.2142    1.3191 C.ar      1 <0>        -0.1850
     13 C11        -0.1691   -2.8122    1.3801 C.ar      1 <0>         0.2400
     14 C12        -1.3001   -2.1448    0.8555 C.ar      1 <0>        -0.1250
     15 C13        -1.3967   -0.7495    0.8748 C.ar      1 <0>        -0.0953
     16 C14        -2.5222   -0.1364    0.3498 C.ar      1 <0>        -0.0720
     17 C15        -3.5580   -0.9075   -0.1972 C.ar      1 <0>        -0.0787
     18 C16        -3.4792   -2.2645   -0.2229 C.ar      1 <0>        -0.0796
     19 C17        -2.3506   -2.9170    0.3012 C.ar      1 <0>         0.1789
     20 N2         -2.2672   -4.2555    0.2770 N.ar      1 <0>        -0.4909
     21 C18        -1.2301   -4.9002    0.7450 C.ar      1 <0>         0.2178
     22 C19        -2.6328    1.3425    0.3668 C.ar      1 <0>        -0.0726
     23 C20        -1.5036    2.1411    0.1497 C.ar      1 <0>         0.0267
     24 C21        -1.6550    3.5131    0.1748 C.ar      1 <0>        -0.1861
     25 C22        -2.9158    4.0536    0.4133 C.ar      1 <0>         0.4528
     26 N3         -3.9639    3.2696    0.6153 N.ar      1 <0>        -0.4933
     27 C23        -3.8617    1.9556    0.5931 C.ar      1 <0>         0.1497
     28 N4         -3.0764    5.4333    0.4401 N.pl3     1 <0>        -0.8160
     29 C24         1.9982    2.2090   -0.0976 C.3       1 <0>         0.5078
     30 F1          1.8421    3.5713    0.1796 F         1 <0>        -0.1721
     31 F2          3.3604    1.9067   -0.1984 F         1 <0>        -0.1603
     32 F3          1.3620    1.9030   -1.3054 F         1 <0>        -0.1731
     33 H1         -0.2366    1.7921    3.9472 H         1 <0>         0.1554
     34 H2          0.7639    3.1125    2.1268 H         1 <0>         0.1546
     35 H3          1.8815   -0.4798    0.1196 H         1 <0>         0.1506
     36 H4         -0.1876   -0.6667    3.8575 H         1 <0>         0.1492
     37 H5          2.8569   -4.7196    2.7861 H         1 <0>         0.1689
     38 H6          1.0131   -5.9897    1.8079 H         1 <0>         0.1611
     39 H7         -0.5997   -0.1548    1.2962 H         1 <0>         0.1588
     40 H8         -4.4302   -0.4167   -0.6033 H         1 <0>         0.1399
     41 H9         -4.2865   -2.8427   -0.6475 H         1 <0>         0.1540
     42 H10        -1.2128   -5.9792    0.7015 H         1 <0>         0.1843
     43 H11        -0.5372    1.6946   -0.0326 H         1 <0>         0.1625
     44 H12        -0.8053    4.1595    0.0117 H         1 <0>         0.1839
     45 H13        -4.7398    1.3485    0.7568 H         1 <0>         0.2119
     46 H14        -2.3129    6.0134    0.2932 H         1 <0>         0.4424
     47 H15        -3.9519    5.8166    0.6056 H         1 <0>         0.4236
     48 H16        -4.8306    3.6730    0.7794 H         1 <0>         0.4467
@<TRIPOS>BOND
     1    1    6 ar
     2    1    2 ar
     3    1   33 1
     4    2    3 ar
     5    2   34 1
     6    3    4 ar
     7    3   29 1
     8    4    5 ar
     9    4   35 1
    10    5    6 ar
    11    5    7 1
    12    6   36 1
    13    7   13 1
    14    7    8 am
    15    8    9 2
    16    8   10 1
    17   10   11 2
    18   10   37 1
    19   11   12 1
    20   11   38 1
    21   12   21 ar
    22   12   13 ar
    23   13   14 ar
    24   14   19 ar
    25   14   15 ar
    26   15   16 ar
    27   15   39 1
    28   16   17 ar
    29   16   22 1
    30   17   18 ar
    31   17   40 1
    32   18   19 ar
    33   18   41 1
    34   19   20 ar
    35   20   21 ar
    36   21   42 1
    37   22   27 ar
    38   22   23 ar
    39   23   24 ar
    40   23   43 1
    41   24   25 ar
    42   24   44 1
    43   25   26 ar
    44   25   28 1
    45   26   27 ar
    46   26   48 1
    47   27   45 1
    48   28   46 1
    49   28   47 1
    50   29   30 1
    51   29   31 1
    52   29   32 1
@<TRIPOS>MOLECULE
ZINC71329484
   47    51     0     0     0
SMALL
USER_CHARGES

@<TRIPOS>ATOM
      1 C1          0.6634    0.3297    2.2563 C.ar      1 <0>        -0.0775
      2 C2          1.8216    1.0425    2.2456 C.ar      1 <0>        -0.0883
      3 C3          2.6966    0.9525    1.1506 C.ar      1 <0>         0.1572
      4 C4          2.3582    0.1121    0.0615 C.ar      1 <0>        -0.1152
      5 C5          1.1642   -0.6151    0.0878 C.ar      1 <0>        -0.1317
      6 C6          0.3218   -0.5040    1.1821 C.ar      1 <0>        -0.0158
      7 C7         -0.9471   -1.2711    1.2177 C.ar      1 <0>        -0.1729
      8 C8         -2.1011   -0.7084    1.7760 C.ar      1 <0>        -0.0154
      9 C9         -3.2591   -1.4600    1.7864 C.ar      1 <0>        -0.2344
     10 C10        -3.2418   -2.7429    1.2456 C.ar      1 <0>         0.4106
     11 N1         -2.1326   -3.2458    0.7253 N.ar      1 <0>        -0.5250
     12 C11        -1.0086   -2.5581    0.6912 C.ar      1 <0>         0.1588
     13 N2         -4.4030   -3.5055    1.2523 N.pl3     1 <0>        -0.8462
     14 C12         3.2472    0.0294   -1.0359 C.ar      1 <0>         0.2389
     15 C13         4.4261    0.7893   -0.9883 C.ar      1 <0>        -0.1926
     16 C14         5.3359    0.7268   -2.0733 C.2       1 <0>         0.0038
     17 C15         5.0435   -0.0685   -3.1337 C.2       1 <0>        -0.2200
     18 C16         3.8501   -0.8188   -3.1500 C.2       1 <0>         0.5308
     19 O1          3.5992   -1.5290   -4.1087 O.2       1 <0>        -0.5122
     20 N3          2.9836   -0.7624   -2.1200 N.am      1 <0>        -0.4641
     21 C17         1.8050   -1.5177   -2.1599 C.ar      1 <0>         0.1025
     22 C18         0.6333   -0.9531   -2.6473 C.ar      1 <0>        -0.0419
     23 C19        -0.5277   -1.6995   -2.6858 C.ar      1 <0>        -0.1447
     24 C20        -0.5245   -3.0104   -2.2384 C.ar      1 <0>         0.1794
     25 C21         0.6424   -3.5750   -1.7517 C.ar      1 <0>        -0.2210
     26 C22         1.8074   -2.8339   -1.7177 C.ar      1 <0>        -0.0342
     27 C23         0.6428   -5.0013   -1.2651 C.3       1 <0>         0.5114
     28 F1          1.9260   -5.3435   -0.8250 F         1 <0>        -0.1717
     29 F2         -0.2636   -5.1336   -0.2077 F         1 <0>        -0.1515
     30 F3          0.2665   -5.8509   -2.3110 F         1 <0>        -0.1667
     31 F4         -1.6616   -3.7389   -2.2765 F         1 <0>        -0.1019
     32 C24         4.6814    1.5979    0.1358 C.ar      1 <0>         0.1971
     33 N4          3.8404    1.6537    1.1352 N.ar      1 <0>        -0.4871
     34 H1          0.0002    0.4034    3.1054 H         1 <0>         0.1372
     35 H2          2.0691    1.6799    3.0815 H         1 <0>         0.1456
     36 H3          0.9000   -1.2574   -0.7392 H         1 <0>         0.1528
     37 H4         -2.0857    0.2894    2.1890 H         1 <0>         0.1374
     38 H5         -4.1677   -1.0576    2.2094 H         1 <0>         0.1350
     39 H6         -0.1249   -2.9996    0.2546 H         1 <0>         0.1443
     40 H7         -5.2188   -3.1434    1.6321 H         1 <0>         0.4095
     41 H8         -4.3980   -4.4000    0.8772 H         1 <0>         0.4067
     42 H9          6.2486    1.3039   -2.0567 H         1 <0>         0.1555
     43 H10         5.7271   -0.1265   -3.9677 H         1 <0>         0.1637
     44 H11         0.6302    0.0692   -2.9956 H         1 <0>         0.1545
     45 H12        -1.4389   -1.2608   -3.0647 H         1 <0>         0.1638
     46 H13         2.7186   -3.2763   -1.3428 H         1 <0>         0.1592
     47 H14         5.5887    2.1826    0.1730 H         1 <0>         0.1765
@<TRIPOS>BOND
     1    1    6 ar
     2    1    2 ar
     3    1   34 1
     4    2    3 ar
     5    2   35 1
     6    3   33 ar
     7    3    4 ar
     8    4    5 ar
     9    4   14 ar
    10    5    6 ar
    11    5   36 1
    12    6    7 1
    13    7   12 ar
    14    7    8 ar
    15    8    9 ar
    16    8   37 1
    17    9   10 ar
    18    9   38 1
    19   10   11 ar
    20   10   13 1
    21   11   12 ar
    22   12   39 1
    23   13   40 1
    24   13   41 1
    25   14   20 1
    26   14   15 ar
    27   15   16 1
    28   15   32 ar
    29   16   17 2
    30   16   42 1
    31   17   18 1
    32   17   43 1
    33   18   19 2
    34   18   20 am
    35   20   21 1
    36   21   26 ar
    37   21   22 ar
    38   22   23 ar
    39   22   44 1
    40   23   24 ar
    41   23   45 1
    42   24   25 ar
    43   24   31 1
    44   25   26 ar
    45   25   27 1
    46   26   46 1
    47   27   28 1
    48   27   29 1
    49   27   30 1
    50   32   33 ar
    51   32   47 1
@<TRIPOS>MOLECULE
ZINC71329484
   48    52     0     0     0
SMALL
USER_CHARGES

@<TRIPOS>ATOM
      1 C1          0.6491    0.3512    2.2225 C.ar      1 <0>        -0.0788
      2 C2          1.8073    1.0638    2.2124 C.ar      1 <0>        -0.0773
      3 C3          2.6872    0.9667    1.1219 C.ar      1 <0>         0.1783
      4 C4          2.3537    0.1192    0.0368 C.ar      1 <0>        -0.1230
      5 C5          1.1595   -0.6077    0.0626 C.ar      1 <0>        -0.0987
      6 C6          0.3121   -0.4895    1.1523 C.ar      1 <0>        -0.0676
      7 C7         -0.9570   -1.2562    1.1872 C.ar      1 <0>        -0.0753
      8 C8         -1.0150   -2.5564    0.6714 C.ar      1 <0>         0.0206
      9 C9         -2.2180   -3.2315    0.7261 C.ar      1 <0>        -0.1796
     10 C10        -3.3257   -2.6022    1.2881 C.ar      1 <0>         0.4534
     11 N1         -3.2369   -1.3706    1.7670 N.ar      1 <0>        -0.4930
     12 C11        -2.1054   -0.6952    1.7385 C.ar      1 <0>         0.1495
     13 N2         -4.5398   -3.2748    1.3469 N.pl3     1 <0>        -0.8144
     14 C12         3.2475    0.0292   -1.0559 C.ar      1 <0>         0.2383
     15 C13         4.4262    0.7894   -1.0081 C.ar      1 <0>        -0.1823
     16 C14         5.3410    0.7197   -2.0885 C.2       1 <0>        -0.0005
     17 C15         5.0532   -0.0825   -3.1450 C.2       1 <0>        -0.2079
     18 C16         3.8599   -0.8328   -3.1617 C.2       1 <0>         0.5313
     19 O1          3.6132   -1.5492   -4.1170 O.2       1 <0>        -0.5016
     20 N3          2.9887   -0.7695   -2.1360 N.am      1 <0>        -0.4694
     21 C17         1.8102   -1.5251   -2.1764 C.ar      1 <0>         0.1100
     22 C18         0.6385   -0.9604   -2.6636 C.ar      1 <0>        -0.0409
     23 C19        -0.5223   -1.7070   -2.7025 C.ar      1 <0>        -0.1422
     24 C20        -0.5190   -3.0180   -2.2555 C.ar      1 <0>         0.1582
     25 C21         0.6480   -3.5827   -1.7689 C.ar      1 <0>        -0.2271
     26 C22         1.8128   -2.8414   -1.7345 C.ar      1 <0>        -0.0314
     27 C23         0.6485   -5.0091   -1.2828 C.3       1 <0>         0.5159
     28 F1          1.9317   -5.3513   -0.8427 F         1 <0>        -0.1613
     29 F2         -0.2580   -5.1419   -0.2255 F         1 <0>        -0.1761
     30 F3          0.2724   -5.8585   -2.3290 F         1 <0>        -0.1570
     31 F4         -1.6560   -3.7467   -2.2940 F         1 <0>        -0.1098
     32 C24         4.6767    1.6052    0.1118 C.ar      1 <0>         0.2179
     33 N4          3.8312    1.6677    1.1071 N.ar      1 <0>        -0.4894
     34 H1         -0.0180    0.4306    3.0682 H         1 <0>         0.1407
     35 H2          2.0511    1.7067    3.0452 H         1 <0>         0.1546
     36 H3          0.8989   -1.2554   -0.7615 H         1 <0>         0.1526
     37 H4         -0.1398   -3.0200    0.2406 H         1 <0>         0.1603
     38 H5         -2.2991   -4.2357    0.3372 H         1 <0>         0.1850
     39 H6         -2.0700    0.3057    2.1428 H         1 <0>         0.2124
     40 H7         -4.6119   -4.1770    0.9977 H         1 <0>         0.4428
     41 H8         -5.3155   -2.8424    1.7371 H         1 <0>         0.4238
     42 H9          6.2536    1.2969   -2.0715 H         1 <0>         0.1616
     43 H10         5.7406   -0.1459   -3.9756 H         1 <0>         0.1697
     44 H11         0.6353    0.0620   -3.0116 H         1 <0>         0.1612
     45 H12        -1.4336   -1.2684   -3.0813 H         1 <0>         0.1690
     46 H13         2.7240   -3.2838   -1.3597 H         1 <0>         0.1659
     47 H14         5.5838    2.1902    0.1494 H         1 <0>         0.1848
     48 H15        -4.0246   -0.9560    2.1524 H         1 <0>         0.4468
@<TRIPOS>BOND
     1    1    6 ar
     2    1    2 ar
     3    1   34 1
     4    2    3 ar
     5    2   35 1
     6    3   33 ar
     7    3    4 ar
     8    4    5 ar
     9    4   14 ar
    10    5    6 ar
    11    5   36 1
    12    6    7 1
    13    7   12 ar
    14    7    8 ar
    15    8    9 ar
    16    8   37 1
    17    9   10 ar
    18    9   38 1
    19   10   11 ar
    20   10   13 1
    21   11   12 ar
    22   11   48 1
    23   12   39 1
    24   13   40 1
    25   13   41 1
    26   14   20 1
    27   14   15 ar
    28   15   16 1
    29   15   32 ar
    30   16   17 2
    31   16   42 1
    32   17   18 1
    33   17   43 1
    34   18   19 2
    35   18   20 am
    36   20   21 1
    37   21   26 ar
    38   21   22 ar
    39   22   23 ar
    40   22   44 1
    41   23   24 ar
    42   23   45 1
    43   24   25 ar
    44   24   31 1
    45   25   26 ar
    46   25   27 1
    47   26   46 1
    48   27   28 1
    49   27   29 1
    50   27   30 1
    51   32   33 ar
    52   32   47 1
@<TRIPOS>MOLECULE
ZINC43202512
   48    51     0     0     0
SMALL
USER_CHARGES

@<TRIPOS>ATOM
      1 C1         -0.0055    1.4955    0.4053 C.3       1 <0>        -0.1666
      2 C2          0.0135   -0.0104    0.3513 C.2       1 <0>         0.5024
      3 O1          1.0712   -0.6032    0.3340 O.2       1 <0>        -0.4721
      4 N1         -1.1451   -0.6983    0.3221 N.am      1 <0>        -0.6203
      5 C3         -1.1277   -2.0825    0.2725 C.2       1 <0>         0.3547
      6 N2         -0.0949   -2.8927    0.2531 N.2       1 <0>        -0.4981
      7 C4         -0.2257   -4.2354    0.2035 C.ar      1 <0>         0.0883
      8 C5          0.7997   -5.2108    0.1777 C.ar      1 <0>        -0.0569
      9 C6          0.5046   -6.5350    0.1263 C.ar      1 <0>        -0.0954
     10 C7         -0.8178   -6.9885    0.0974 C.ar      1 <0>         0.0035
     11 C8         -1.8543   -6.0561    0.1220 C.ar      1 <0>        -0.0588
     12 C9         -1.5546   -4.7198    0.1734 C.ar      1 <0>        -0.1359
     13 S1         -2.5055   -3.2199    0.2263 S.3       1 <0>        -0.0058
     14 C10        -1.1138   -8.4409    0.0408 C.ar      1 <0>        -0.0498
     15 C11        -0.0755   -9.3759    0.0214 C.ar      1 <0>        -0.2050
     16 C12        -0.4055  -10.7247   -0.0319 C.ar      1 <0>         0.2573
     17 C13        -1.7471  -11.0932   -0.0639 C.ar      1 <0>         0.1218
     18 N3         -2.7004  -10.1820   -0.0446 N.ar      1 <0>        -0.4448
     19 C14        -2.4313   -8.8932    0.0120 C.ar      1 <0>         0.0198
     20 Cl1        -2.1716  -12.7752   -0.1306 Cl        1 <0>        -0.0456
     21 N4          0.5971  -11.6987   -0.0537 N.2       1 <0>        -1.0628
     22 S2          2.1861  -11.2488   -0.1759 S.o2      1 <0>         2.6068
     23 O2          2.3229  -10.5748   -1.4194 O.2       1 <0>        -1.0263
     24 O3          2.5327  -10.6422    1.0615 O.2       1 <0>        -1.0246
     25 C15         3.1382  -12.7265   -0.2965 C.ar      1 <0>        -0.6508
     26 C16         3.6073  -13.3408    0.8499 C.ar      1 <0>         0.0160
     27 C17         4.3543  -14.4992    0.7580 C.ar      1 <0>        -0.1755
     28 C18         4.6334  -15.0463   -0.4860 C.ar      1 <0>         0.1619
     29 C19         4.1612  -14.4282   -1.6348 C.ar      1 <0>        -0.2324
     30 C20         3.4102  -13.2728   -1.5372 C.ar      1 <0>         0.0179
     31 O4          5.3685  -16.1855   -0.5791 O.3       1 <0>        -0.3169
     32 C21         5.6168  -16.6919   -1.8921 C.3       1 <0>         0.0251
     33 H1          1.0175    1.8714    0.4227 H         1 <0>         0.1008
     34 H2         -0.5205    1.8842   -0.4733 H         1 <0>         0.0946
     35 H3         -0.5273    1.8203    1.3055 H         1 <0>         0.0946
     36 H4         -1.9912   -0.2241    0.3359 H         1 <0>         0.4278
     37 H5          1.8329   -4.8968    0.1988 H         1 <0>         0.1352
     38 H6          1.3097   -7.2546    0.1070 H         1 <0>         0.1394
     39 H7         -2.8832   -6.3837    0.1001 H         1 <0>         0.1409
     40 H8          0.9565   -9.0585    0.0469 H         1 <0>         0.1224
     41 H9         -3.2413   -8.1791    0.0311 H         1 <0>         0.1482
     42 H10         3.3897  -12.9145    1.8181 H         1 <0>         0.1444
     43 H11         4.7211  -14.9782    1.6537 H         1 <0>         0.1352
     44 H12         4.3771  -14.8522   -2.6043 H         1 <0>         0.1321
     45 H13         3.0386  -12.7937   -2.4309 H         1 <0>         0.1397
     46 H14         6.1586  -15.9454   -2.4729 H         1 <0>         0.0566
     47 H15         6.2128  -17.6020   -1.8238 H         1 <0>         0.0994
     48 H16         4.6684  -16.9145   -2.3810 H         1 <0>         0.0578
@<TRIPOS>BOND
     1    1    2 1
     2    1   33 1
     3    1   34 1
     4    1   35 1
     5    2    3 2
     6    2    4 am
     7    4    5 1
     8    4   36 1
     9    5   13 1
    10    5    6 2
    11    6    7 1
    12    7   12 ar
    13    7    8 ar
    14    8    9 ar
    15    8   37 1
    16    9   10 ar
    17    9   38 1
    18   10   11 ar
    19   10   14 1
    20   11   12 ar
    21   11   39 1
    22   12   13 1
    23   14   19 ar
    24   14   15 ar
    25   15   16 ar
    26   15   40 1
    27   16   17 ar
    28   16   21 1
    29   17   18 ar
    30   17   20 1
    31   18   19 ar
    32   19   41 1
    33   21   22 1
    34   22   23 2
    35   22   24 2
    36   22   25 1
    37   25   30 ar
    38   25   26 ar
    39   26   27 ar
    40   26   42 1
    41   27   28 ar
    42   27   43 1
    43   28   29 ar
    44   28   31 1
    45   29   30 ar
    46   29   44 1
    47   30   45 1
    48   31   32 1
    49   32   46 1
    50   32   47 1
    51   32   48 1
@<TRIPOS>MOLECULE
ZINC05051198
   38    41     0     0     0
SMALL
USER_CHARGES
N-(4-fluorophenyl)-N-methyl-BLAHcarboxamide
@<TRIPOS>ATOM
      1 C1         -2.6079    1.7243   -0.5824 C.3       1 <0>         0.0518
      2 N1         -1.2658    2.1826   -0.2148 N.am      1 <0>        -0.5469
      3 C2         -0.1889    1.2895   -0.2449 C.ar      1 <0>         0.1404
      4 C3          1.1049    1.7533   -0.0461 C.ar      1 <0>        -0.1366
      5 C4          2.1668    0.8710   -0.0809 C.ar      1 <0>        -0.1278
      6 C5          1.9423   -0.4752   -0.3153 C.ar      1 <0>         0.0754
      7 C6          0.6530   -0.9398   -0.5143 C.ar      1 <0>        -0.1283
      8 C7         -0.4118   -0.0610   -0.4794 C.ar      1 <0>        -0.1299
      9 F1          2.9825   -1.3366   -0.3494 F         1 <0>        -0.1402
     10 C8         -1.0683    3.4642    0.1523 C.2       1 <0>         0.6106
     11 O1          0.0603    3.8712    0.3591 O.2       1 <0>        -0.4990
     12 C9         -2.2109    4.3670    0.3023 C.2       1 <0>        -0.2555
     13 C10        -2.2160    5.7351    0.5401 C.2       1 <0>        -0.0350
     14 C11        -3.4096    6.3984    0.6490 C.2       1 <0>        -0.1968
     15 C12        -4.5670    5.6189    0.5033 C.2       1 <0>        -0.1022
     16 S1         -3.9579    3.9914    0.2184 S.3       1 <0>         0.1860
     17 C13        -5.9063    6.1872    0.5872 C.ar      1 <0>        -0.0962
     18 C14        -7.0640    5.4353    0.7137 C.ar      1 <0>        -0.0612
     19 C15        -8.2868    6.0725    0.8024 C.ar      1 <0>        -0.1452
     20 C16        -8.3542    7.4549    0.7662 C.ar      1 <0>        -0.0678
     21 C17        -7.2069    8.2144    0.6338 C.ar      1 <0>        -0.1443
     22 C18        -5.9731    7.5977    0.5350 C.ar      1 <0>         0.1559
     23 O2         -4.8386    8.3147    0.3614 O.3       1 <0>        -0.3162
     24 C19        -3.5968    7.8874    0.9178 C.3       1 <0>         0.1415
     25 H1         -3.1587    1.4534    0.3183 H         1 <0>         0.0788
     26 H2         -3.1346    2.5236   -1.1037 H         1 <0>         0.0864
     27 H3         -2.5289    0.8551   -1.2353 H         1 <0>         0.1024
     28 H4          1.2805    2.8033    0.1361 H         1 <0>         0.1913
     29 H5          3.1730    1.2311    0.0747 H         1 <0>         0.1401
     30 H6          0.4801   -1.9902   -0.6966 H         1 <0>         0.1404
     31 H7         -1.4172   -0.4239   -0.6339 H         1 <0>         0.1376
     32 H8         -1.2846    6.2729    0.6389 H         1 <0>         0.1502
     33 H9         -7.0104    4.3571    0.7424 H         1 <0>         0.1297
     34 H10        -9.1917    5.4912    0.9005 H         1 <0>         0.1342
     35 H11        -9.3135    7.9452    0.8427 H         1 <0>         0.1366
     36 H12        -7.2742    9.2920    0.6074 H         1 <0>         0.1390
     37 H13        -3.5994    8.0654    1.9931 H         1 <0>         0.0774
     38 H14        -2.7810    8.4454    0.4582 H         1 <0>         0.1231
@<TRIPOS>BOND
     1    1    2 1
     2    1   25 1
     3    1   26 1
     4    1   27 1
     5    2    3 1
     6    2   10 am
     7    3    8 ar
     8    3    4 ar
     9    4    5 ar
    10    4   28 1
    11    5    6 ar
    12    5   29 1
    13    6    7 ar
    14    6    9 1
    15    7    8 ar
    16    7   30 1
    17    8   31 1
    18   10   11 2
    19   10   12 1
    20   12   16 1
    21   12   13 2
    22   13   14 1
    23   13   32 1
    24   14   24 1
    25   14   15 2
    26   15   16 1
    27   15   17 1
    28   17   22 ar
    29   17   18 ar
    30   18   19 ar
    31   18   33 1
    32   19   20 ar
    33   19   34 1
    34   20   21 ar
    35   20   35 1
    36   21   22 ar
    37   21   36 1
    38   22   23 1
    39   23   24 1
    40   24   37 1
    41   24   38 1
@<TRIPOS>MOLECULE
ZINC05050625
   41    44     0     0     0
SMALL
USER_CHARGES
N-methyl-N-(o-tolyl)BLAHcarboxamide
@<TRIPOS>ATOM
      1 C1         -4.2568    1.8496    2.6388 C.3       1 <0>        -0.1204
      2 C2         -4.2177    2.6158    1.3417 C.ar      1 <0>        -0.0642
      3 C3         -3.9277    3.9663    1.3448 C.ar      1 <0>        -0.1134
      4 C4         -3.8912    4.6699    0.1551 C.ar      1 <0>        -0.1000
      5 C5         -4.1443    4.0244   -1.0416 C.ar      1 <0>        -0.1160
      6 C6         -4.4297    2.6734   -1.0523 C.ar      1 <0>        -0.0999
      7 C7         -4.4728    1.9647    0.1418 C.ar      1 <0>         0.1033
      8 N1         -4.7667    0.5977    0.1351 N.am      1 <0>        -0.5690
      9 C8         -6.1557    0.1466    0.2503 C.3       1 <0>         0.0862
     10 C9         -3.7721   -0.3049    0.0226 C.2       1 <0>         0.6140
     11 O1         -4.0335   -1.4903   -0.0698 O.2       1 <0>        -0.5170
     12 C10        -2.3777    0.1402    0.0114 C.2       1 <0>        -0.2521
     13 C11        -1.2183   -0.6243    0.0088 C.2       1 <0>        -0.0478
     14 C12         0.0021   -0.0022   -0.0009 C.2       1 <0>        -0.1979
     15 C13        -0.0178    1.4007   -0.0118 C.2       1 <0>        -0.1216
     16 S1         -1.7309    1.8079   -0.0056 S.3       1 <0>         0.2129
     17 C14         1.2022    2.1975   -0.0300 C.ar      1 <0>        -0.0901
     18 C15         1.2473    3.5570    0.2365 C.ar      1 <0>        -0.0631
     19 C16         2.4600    4.2190    0.2109 C.ar      1 <0>        -0.1455
     20 C17         3.6234    3.5264   -0.0786 C.ar      1 <0>        -0.0713
     21 C18         3.5891    2.1722   -0.3535 C.ar      1 <0>        -0.1448
     22 C19         2.3856    1.4909   -0.3416 C.ar      1 <0>         0.1535
     23 O2          2.3210    0.1696   -0.6262 O.3       1 <0>        -0.3176
     24 C20         1.3662   -0.6829    0.0024 C.3       1 <0>         0.1424
     25 H1         -3.2658    1.4507    2.8551 H         1 <0>         0.0731
     26 H2         -4.5643    2.5156    3.4450 H         1 <0>         0.0744
     27 H3         -4.9686    1.0285    2.5544 H         1 <0>         0.0692
     28 H4         -3.7289    4.4731    2.2775 H         1 <0>         0.1315
     29 H5         -3.6642    5.7257    0.1603 H         1 <0>         0.1303
     30 H6         -4.1143    4.5767   -1.9692 H         1 <0>         0.1316
     31 H7         -4.6228    2.1690   -1.9875 H         1 <0>         0.1292
     32 H8         -6.4343    0.0934    1.3027 H         1 <0>         0.0620
     33 H9         -6.8102    0.8505   -0.2637 H         1 <0>         0.0743
     34 H10        -6.2561   -0.8399   -0.2024 H         1 <0>         0.0885
     35 H11        -1.2784   -1.7026    0.0140 H         1 <0>         0.1456
     36 H12         0.3393    4.0962    0.4626 H         1 <0>         0.1282
     37 H13         2.5004    5.2783    0.4173 H         1 <0>         0.1329
     38 H14         4.5679    4.0500   -0.0900 H         1 <0>         0.1353
     39 H15         4.5044    1.6447   -0.5778 H         1 <0>         0.1377
     40 H16         1.6732   -0.8774    1.0301 H         1 <0>         0.0749
     41 H17         1.3041   -1.6246   -0.5430 H         1 <0>         0.1209
@<TRIPOS>BOND
     1    1    2 1
     2    1   25 1
     3    1   26 1
     4    1   27 1
     5    2    7 ar
     6    2    3 ar
     7    3    4 ar
     8    3   28 1
     9    4    5 ar
    10    4   29 1
    11    5    6 ar
    12    5   30 1
    13    6    7 ar
    14    6   31 1
    15    7    8 1
    16    8    9 1
    17    8   10 am
    18    9   32 1
    19    9   33 1
    20    9   34 1
    21   10   11 2
    22   10   12 1
    23   12   16 1
    24   12   13 2
    25   13   14 1
    26   13   35 1
    27   14   24 1
    28   14   15 2
    29   15   16 1
    30   15   17 1
    31   17   22 ar
    32   17   18 ar
    33   18   19 ar
    34   18   36 1
    35   19   20 ar
    36   19   37 1
    37   20   21 ar
    38   20   38 1
    39   21   22 ar
    40   21   39 1
    41   22   23 1
    42   23   24 1
    43   24   40 1
    44   24   41 1
@<TRIPOS>MOLECULE
ZINC05050688
   38    41     0     0     0
SMALL
USER_CHARGES
N-(2-chlorophenyl)-N-methyl-BLAHcarboxamide
@<TRIPOS>ATOM
      1 C1         -6.1557    0.1466    0.2510 C.3       1 <0>         0.0868
      2 N1         -4.7667    0.5977    0.1354 N.am      1 <0>        -0.5702
      3 C2         -4.4727    1.9653    0.1416 C.ar      1 <0>         0.1158
      4 C3         -4.4298    2.6734   -1.0522 C.ar      1 <0>        -0.0921
      5 C4         -4.1439    4.0246   -1.0423 C.ar      1 <0>        -0.1055
      6 C5         -3.8905    4.6710    0.1537 C.ar      1 <0>        -0.0920
      7 C6         -3.9270    3.9687    1.3442 C.ar      1 <0>        -0.1050
      8 C7         -4.2172    2.6173    1.3421 C.ar      1 <0>        -0.0237
      9 Cl1        -4.2618    1.7356    2.8368 Cl        1 <0>        -0.0483
     10 C8         -3.7722   -0.3049    0.0230 C.2       1 <0>         0.6175
     11 O1         -4.0336   -1.4903   -0.0695 O.2       1 <0>        -0.5116
     12 C9         -2.3777    0.1401    0.0121 C.2       1 <0>        -0.2494
     13 C10        -1.2183   -0.6244    0.0099 C.2       1 <0>        -0.0450
     14 C11         0.0021   -0.0023    0.0008 C.2       1 <0>        -0.1966
     15 C12        -0.0177    1.4006   -0.0101 C.2       1 <0>        -0.1147
     16 S1         -1.7308    1.8078   -0.0046 S.3       1 <0>         0.1976
     17 C13         1.2023    2.1973   -0.0277 C.ar      1 <0>        -0.0908
     18 C14         1.2474    3.5569    0.2387 C.ar      1 <0>        -0.0628
     19 C15         2.4600    4.2188    0.2134 C.ar      1 <0>        -0.1454
     20 C16         3.6234    3.5264   -0.0760 C.ar      1 <0>        -0.0708
     21 C17         3.5893    2.1719   -0.3498 C.ar      1 <0>        -0.1447
     22 C18         2.3858    1.4907   -0.3385 C.ar      1 <0>         0.1542
     23 O2          2.3214    0.1695   -0.6233 O.3       1 <0>        -0.3173
     24 C19         1.3662   -0.6831    0.0048 C.3       1 <0>         0.1424
     25 H1         -6.4341    0.0937    1.3036 H         1 <0>         0.0640
     26 H2         -6.8103    0.8504   -0.2630 H         1 <0>         0.0748
     27 H3         -6.2562   -0.8400   -0.2014 H         1 <0>         0.0907
     28 H4         -4.6231    2.1687   -1.9873 H         1 <0>         0.1398
     29 H5         -4.1142    4.5763   -1.9703 H         1 <0>         0.1400
     30 H6         -3.6632    5.7269    0.1579 H         1 <0>         0.1409
     31 H7         -3.7283    4.4764    2.2764 H         1 <0>         0.1430
     32 H8         -1.2785   -1.7027    0.0150 H         1 <0>         0.1467
     33 H9          0.3393    4.0961    0.4645 H         1 <0>         0.1281
     34 H10         2.5003    5.2782    0.4194 H         1 <0>         0.1330
     35 H11         4.5680    4.0499   -0.0872 H         1 <0>         0.1355
     36 H12         4.5048    1.6444   -0.5734 H         1 <0>         0.1379
     37 H13         1.6726   -0.8776    1.0326 H         1 <0>         0.0756
     38 H14         1.3043   -1.6247   -0.5407 H         1 <0>         0.1215
@<TRIPOS>BOND
     1    1    2 1
     2    1   25 1
     3    1   26 1
     4    1   27 1
     5    2    3 1
     6    2   10 am
     7    3    8 ar
     8    3    4 ar
     9    4    5 ar
    10    4   28 1
    11    5    6 ar
    12    5   29 1
    13    6    7 ar
    14    6   30 1
    15    7    8 ar
    16    7   31 1
    17    8    9 1
    18   10   11 2
    19   10   12 1
    20   12   16 1
    21   12   13 2
    22   13   14 1
    23   13   32 1
    24   14   24 1
    25   14   15 2
    26   15   16 1
    27   15   17 1
    28   17   22 ar
    29   17   18 ar
    30   18   19 ar
    31   18   33 1
    32   19   20 ar
    33   19   34 1
    34   20   21 ar
    35   20   35 1
    36   21   22 ar
    37   21   36 1
    38   22   23 1
    39   23   24 1
    40   24   37 1
    41   24   38 1
@<TRIPOS>MOLECULE
ZINC03938693
   49    54     0     0     0
SMALL
USER_CHARGES
8-dibenzothiophen-4-yl-2-morpholino-chromen-4-one
@<TRIPOS>ATOM
      1 C1         -4.6468   -3.5753   -1.1748 C.ar      1 <0>        -0.1185
      2 C2         -5.4276   -2.6582   -0.4874 C.ar      1 <0>        -0.0911
      3 C3         -5.4502   -1.3404   -0.9006 C.ar      1 <0>        -0.0773
      4 C4         -4.6968   -0.9535   -1.9905 C.ar      1 <0>        -0.1031
      5 C5         -3.8982   -1.8587   -2.7046 C.ar      1 <0>        -0.0753
      6 C6         -3.8953   -3.1979   -2.2586 C.ar      1 <0>        -0.0772
      7 C7         -3.1490   -1.2943   -3.8499 C.ar      1 <0>        -0.0725
      8 C8         -2.2814   -1.9837   -4.7255 C.ar      1 <0>        -0.0718
      9 C9         -1.6497   -1.3284   -5.7531 C.ar      1 <0>        -0.1174
     10 C10        -1.8389    0.0258   -5.9679 C.ar      1 <0>        -0.0765
     11 C11        -2.6878    0.7383   -5.1234 C.ar      1 <0>        -0.0053
     12 C12        -3.3238    0.0768   -4.0778 C.ar      1 <0>        -0.0812
     13 S1         -4.4579    0.5984   -2.8171 S.3       1 <0>         0.0435
     14 C13        -2.9064    2.1892   -5.3334 C.ar      1 <0>        -0.0749
     15 C14        -3.5352    2.6414   -6.4891 C.ar      1 <0>        -0.0418
     16 C15        -3.7430    3.9945   -6.6925 C.ar      1 <0>        -0.1429
     17 C16        -3.3286    4.9141   -5.7514 C.ar      1 <0>        -0.0248
     18 C17        -2.6969    4.4788   -4.5876 C.ar      1 <0>        -0.2155
     19 C18        -2.4811    3.1116   -4.3698 C.ar      1 <0>         0.1667
     20 O1         -1.8696    2.7002   -3.2398 O.3       1 <0>        -0.2335
     21 C19        -1.4519    3.5582   -2.2993 C.2       1 <0>         0.3499
     22 C20        -1.6179    4.9060   -2.4118 C.2       1 <0>        -0.3553
     23 C21        -2.2405    5.4359   -3.5582 C.2       1 <0>         0.4300
     24 O2         -2.4016    6.6381   -3.6941 O.2       1 <0>        -0.4774
     25 N1         -0.8389    3.0606   -1.1783 N.pl3     1 <0>        -0.4556
     26 C22        -0.7549    1.5938   -1.2309 C.3       1 <0>         0.0069
     27 C23        -0.0127    1.0858    0.0080 C.3       1 <0>         0.0636
     28 O3         -0.6838    1.5479    1.1834 O.3       1 <0>        -0.3774
     29 C24        -0.7839    2.9721    1.2669 C.3       1 <0>         0.0623
     30 C25        -1.5339    3.4992    0.0407 C.3       1 <0>         0.0155
     31 H1         -4.6301   -4.6055   -0.8511 H         1 <0>         0.1312
     32 H2         -6.0135   -2.9719    0.3639 H         1 <0>         0.1374
     33 H3         -6.0539   -0.6165   -0.3735 H         1 <0>         0.1332
     34 H4         -3.2960   -3.9325   -2.7759 H         1 <0>         0.1266
     35 H5         -2.1128   -3.0412   -4.5848 H         1 <0>         0.1283
     36 H6         -0.9918   -1.8809   -6.4075 H         1 <0>         0.1347
     37 H7         -1.3336    0.5251   -6.7815 H         1 <0>         0.1390
     38 H8         -3.8634    1.9311   -7.2335 H         1 <0>         0.1439
     39 H9         -4.2324    4.3326   -7.5939 H         1 <0>         0.1420
     40 H10        -3.4930    5.9687   -5.9161 H         1 <0>         0.1461
     41 H11        -1.2703    5.5637   -1.6288 H         1 <0>         0.1600
     42 H12        -0.2145    1.2922   -2.1281 H         1 <0>         0.0999
     43 H13        -1.7598    1.1722   -1.2516 H         1 <0>         0.0725
     44 H14         0.0021   -0.0041    0.0020 H         1 <0>         0.1077
     45 H15         1.0097    1.4637    0.0003 H         1 <0>         0.0662
     46 H16         0.2159    3.4055    1.2962 H         1 <0>         0.0683
     47 H17        -1.3264    3.2471    2.1714 H         1 <0>         0.1127
     48 H18        -1.5620    4.5884    0.0717 H         1 <0>         0.1086
     49 H19        -2.5513    3.1080    0.0404 H         1 <0>         0.0694
@<TRIPOS>BOND
     1    1    6 ar
     2    1    2 ar
     3    1   31 1
     4    2    3 ar
     5    2   32 1
     6    3    4 ar
     7    3   33 1
     8    4   13 1
     9    4    5 ar
    10    5    6 ar
    11    5    7 1
    12    6   34 1
    13    7   12 ar
    14    7    8 ar
    15    8    9 ar
    16    8   35 1
    17    9   10 ar
    18    9   36 1
    19   10   11 ar
    20   10   37 1
    21   11   12 ar
    22   11   14 1
    23   12   13 1
    24   14   19 ar
    25   14   15 ar
    26   15   16 ar
    27   15   38 1
    28   16   17 ar
    29   16   39 1
    30   17   18 ar
    31   17   40 1
    32   18   23 1
    33   18   19 ar
    34   19   20 1
    35   20   21 1
    36   21   22 2
    37   21   25 1
    38   22   23 1
    39   22   41 1
    40   23   24 2
    41   25   30 1
    42   25   26 1
    43   26   27 1
    44   26   42 1
    45   26   43 1
    46   27   28 1
    47   27   44 1
    48   27   45 1
    49   28   29 1
    50   29   30 1
    51   29   46 1
    52   29   47 1
    53   30   48 1
    54   30   49 1
@<TRIPOS>MOLECULE
ZINC06718666
   40    43     0     0     0
SMALL
USER_CHARGES
3-[2,4-diamino-7-(3-hydroxyphenyl)pteridin-6-yl]phenol
@<TRIPOS>ATOM
      1 C1         -2.5738    3.3070   -2.8460 C.ar      1 <0>        -0.1000
      2 C2         -1.6625    4.0153   -2.0888 C.ar      1 <0>        -0.0956
      3 C3         -2.0105    5.2592   -1.5633 C.ar      1 <0>        -0.0208
      4 C4         -3.2760    5.7872   -1.8136 C.ar      1 <0>        -0.1118
      5 C5         -4.1818    5.0711   -2.5780 C.ar      1 <0>         0.1041
      6 C6         -3.8287    3.8311   -3.0933 C.ar      1 <0>        -0.1315
      7 O1         -5.4167    5.5825   -2.8243 O.3       1 <0>        -0.4974
      8 C7         -1.0360    6.0200   -0.7467 C.ar      1 <0>         0.0968
      9 C8         -0.2989    5.3612    0.2658 C.ar      1 <0>         0.2245
     10 N1          0.5708    6.0309    1.0046 N.ar      1 <0>        -0.4312
     11 C9          0.7591    7.3340    0.7843 C.ar      1 <0>         0.3820
     12 C10         0.0176    7.9895   -0.2319 C.ar      1 <0>        -0.0919
     13 N2         -0.8584    7.3118   -0.9673 N.ar      1 <0>        -0.3675
     14 C11         0.2526    9.4201   -0.4339 C.ar      1 <0>         0.5461
     15 N3          1.1448   10.0151    0.3463 N.ar      1 <0>        -0.6266
     16 C12         1.8046    9.3382    1.2806 C.ar      1 <0>         0.6425
     17 N4          1.6317    8.0505    1.5043 N.ar      1 <0>        -0.6003
     18 N5          2.7209   10.0202    2.0583 N.pl3     1 <0>        -0.8048
     19 N6         -0.4297   10.1245   -1.4020 N.pl3     1 <0>        -0.7906
     20 C13        -0.5066    3.9142    0.5042 C.ar      1 <0>        -0.0440
     21 C14        -1.7994    3.3925    0.5591 C.ar      1 <0>        -0.0850
     22 C15        -1.9896    2.0429    0.7747 C.ar      1 <0>        -0.1032
     23 C16        -0.9024    1.2064    0.9486 C.ar      1 <0>        -0.1231
     24 C17         0.3873    1.7170    0.8960 C.ar      1 <0>         0.1021
     25 C18         0.5888    3.0692    0.6739 C.ar      1 <0>        -0.0998
     26 O2          1.4527    0.8897    1.0620 O.3       1 <0>        -0.4952
     27 H1         -2.3041    2.3423   -3.2499 H         1 <0>         0.1325
     28 H2         -0.6814    3.6048   -1.9009 H         1 <0>         0.1271
     29 H3         -3.5495    6.7518   -1.4122 H         1 <0>         0.1317
     30 H4         -4.5366    3.2746   -3.6895 H         1 <0>         0.1317
     31 H5         -5.4667    6.1211   -3.6258 H         1 <0>         0.3923
     32 H6          3.2168    9.5509    2.7474 H         1 <0>         0.4206
     33 H7          2.8681   10.9682    1.9153 H         1 <0>         0.4179
     34 H8         -1.0786    9.6727   -1.9638 H         1 <0>         0.4259
     35 H9         -0.2611   11.0722   -1.5217 H         1 <0>         0.4173
     36 H10        -2.6508    4.0439    0.4285 H         1 <0>         0.1296
     37 H11        -2.9907    1.6395    0.8122 H         1 <0>         0.1346
     38 H12        -1.0570    0.1516    1.1216 H         1 <0>         0.1335
     39 H13         1.5917    3.4677    0.6320 H         1 <0>         0.1355
     40 H14         1.7833    0.5042    0.2390 H         1 <0>         0.3919
@<TRIPOS>BOND
     1    1    6 ar
     2    1    2 ar
     3    1   27 1
     4    2    3 ar
     5    2   28 1
     6    3    4 ar
     7    3    8 1
     8    4    5 ar
     9    4   29 1
    10    5    6 ar
    11    5    7 1
    12    6   30 1
    13    7   31 1
    14    8   13 ar
    15    8    9 ar
    16    9   10 ar
    17    9   20 1
    18   10   11 ar
    19   11   17 ar
    20   11   12 ar
    21   12   13 ar
    22   12   14 ar
    23   14   15 ar
    24   14   19 1
    25   15   16 ar
    26   16   17 ar
    27   16   18 1
    28   18   32 1
    29   18   33 1
    30   19   34 1
    31   19   35 1
    32   20   25 ar
    33   20   21 ar
    34   21   22 ar
    35   21   36 1
    36   22   23 ar
    37   22   37 1
    38   23   24 ar
    39   23   38 1
    40   24   25 ar
    41   24   26 1
    42   25   39 1
    43   26   40 1
@<TRIPOS>MOLECULE
ZINC06718666
   41    44     0     0     0
SMALL
USER_CHARGES
3-[2,4-diamino-7-(3-hydroxyphenyl)pteridin-6-yl]phenol
@<TRIPOS>ATOM
      1 C1         -2.5738    3.3070   -2.8460 C.ar      1 <0>        -0.0971
      2 C2         -1.6625    4.0153   -2.0888 C.ar      1 <0>        -0.0865
      3 C3         -2.0105    5.2592   -1.5633 C.ar      1 <0>        -0.0567
      4 C4         -3.2760    5.7872   -1.8136 C.ar      1 <0>        -0.1030
      5 C5         -4.1818    5.0711   -2.5780 C.ar      1 <0>         0.1100
      6 C6         -3.8287    3.8311   -3.0933 C.ar      1 <0>        -0.1134
      7 O1         -5.4167    5.5825   -2.8243 O.3       1 <0>        -0.4939
      8 C7         -1.0360    6.0200   -0.7467 C.ar      1 <0>         0.1573
      9 C8         -0.2989    5.3612    0.2658 C.ar      1 <0>         0.2583
     10 N1          0.5708    6.0309    1.0046 N.ar      1 <0>        -0.4438
     11 C9          0.7591    7.3340    0.7843 C.ar      1 <0>         0.3445
     12 C10         0.0176    7.9895   -0.2319 C.ar      1 <0>        -0.0192
     13 N2         -0.8584    7.3118   -0.9673 N.ar      1 <0>        -0.3584
     14 C11         0.2526    9.4201   -0.4339 C.ar      1 <0>         0.5825
     15 N3          1.1448   10.0151    0.3463 N.ar      1 <0>        -0.5744
     16 C12         1.8046    9.3382    1.2806 C.ar      1 <0>         0.7111
     17 N4          2.7209   10.0202    2.0583 N.pl3     1 <0>        -0.7755
     18 N5         -0.4297   10.1245   -1.4020 N.pl3     1 <0>        -0.7318
     19 C13        -0.5066    3.9142    0.5042 C.ar      1 <0>        -0.0744
     20 C14        -1.7994    3.3925    0.5591 C.ar      1 <0>        -0.0758
     21 C15        -1.9896    2.0429    0.7747 C.ar      1 <0>        -0.0992
     22 C16        -0.9024    1.2064    0.9486 C.ar      1 <0>        -0.1053
     23 C17         0.3873    1.7170    0.8960 C.ar      1 <0>         0.1076
     24 C18         0.5888    3.0692    0.6739 C.ar      1 <0>        -0.0953
     25 O2          1.4527    0.8897    1.0620 O.3       1 <0>        -0.4928
     26 H1         -2.3041    2.3423   -3.2499 H         1 <0>         0.1400
     27 H2         -0.6814    3.6048   -1.9009 H         1 <0>         0.1303
     28 H3         -3.5495    6.7518   -1.4122 H         1 <0>         0.1349
     29 H4         -4.5366    3.2746   -3.6895 H         1 <0>         0.1399
     30 H5         -5.4667    6.1211   -3.6258 H         1 <0>         0.3980
     31 H6          3.2168    9.5509    2.7474 H         1 <0>         0.4343
     32 H7          2.8681   10.9682    1.9153 H         1 <0>         0.4464
     33 H8         -1.0786    9.6727   -1.9638 H         1 <0>         0.4434
     34 H9         -0.2611   11.0722   -1.5217 H         1 <0>         0.4371
     35 H10        -2.6508    4.0439    0.4285 H         1 <0>         0.1338
     36 H11        -2.9907    1.6395    0.8122 H         1 <0>         0.1426
     37 H12        -1.0570    0.1516    1.1216 H         1 <0>         0.1418
     38 H13         1.5917    3.4677    0.6320 H         1 <0>         0.1360
     39 H14         1.7833    0.5042    0.2390 H         1 <0>         0.3981
     40 N6          1.6721    8.0166    1.5591 N.ar      1 <0>        -0.5944
     41 H15         2.1840    7.5345    2.2701 H         1 <0>         0.4629
@<TRIPOS>BOND
     1    1    6 ar
     2    1    2 ar
     3    1   26 1
     4    2    3 ar
     5    2   27 1
     6    3    4 ar
     7    3    8 1
     8    4    5 ar
     9    4   28 1
    10    5    6 ar
    11    5    7 1
    12    6   29 1
    13    7   30 1
    14    8   13 ar
    15    8    9 ar
    16    9   10 ar
    17    9   19 1
    18   10   11 ar
    19   11   12 ar
    20   11   40 ar
    21   12   13 ar
    22   12   14 ar
    23   14   15 ar
    24   14   18 1
    25   15   16 ar
    26   16   17 1
    27   16   40 ar
    28   17   31 1
    29   17   32 1
    30   18   33 1
    31   18   34 1
    32   19   24 ar
    33   19   20 ar
    34   20   21 ar
    35   20   35 1
    36   21   22 ar
    37   21   36 1
    38   22   23 ar
    39   22   37 1
    40   23   24 ar
    41   23   25 1
    42   24   38 1
    43   25   39 1
    44   40   41 1
@<TRIPOS>MOLECULE
ZINC06718666
   41    44     0     0     0
SMALL
USER_CHARGES
3-[2,4-diamino-7-(3-hydroxyphenyl)pteridin-6-yl]phenol
@<TRIPOS>ATOM
      1 C1         -2.5738    3.3070   -2.8460 C.ar      1 <0>        -0.0964
      2 C2         -1.6625    4.0153   -2.0888 C.ar      1 <0>        -0.0825
      3 C3         -2.0105    5.2592   -1.5633 C.ar      1 <0>        -0.0623
      4 C4         -3.2760    5.7872   -1.8136 C.ar      1 <0>        -0.1007
      5 C5         -4.1818    5.0711   -2.5780 C.ar      1 <0>         0.1098
      6 C6         -3.8287    3.8311   -3.0933 C.ar      1 <0>        -0.1092
      7 O1         -5.4167    5.5825   -2.8243 O.3       1 <0>        -0.4931
      8 C7         -1.0360    6.0200   -0.7467 C.ar      1 <0>         0.1862
      9 C8         -0.2989    5.3612    0.2658 C.ar      1 <0>         0.2854
     10 N1          0.5708    6.0309    1.0046 N.ar      1 <0>        -0.4091
     11 C9          0.7591    7.3340    0.7843 C.ar      1 <0>         0.3667
     12 C10         0.0176    7.9895   -0.2319 C.ar      1 <0>        -0.1308
     13 N2         -0.8584    7.3118   -0.9673 N.ar      1 <0>        -0.3702
     14 C11         0.2526    9.4201   -0.4339 C.ar      1 <0>         0.4561
     15 N3          1.1448   10.0151    0.3463 N.ar      1 <0>        -0.5007
     16 C12         1.8046    9.3382    1.2806 C.ar      1 <0>         0.5748
     17 N4          2.7209   10.0202    2.0583 N.pl3     1 <0>        -0.7400
     18 N5         -0.4297   10.1245   -1.4020 N.pl3     1 <0>        -0.7129
     19 C13        -0.5066    3.9142    0.5042 C.ar      1 <0>        -0.0819
     20 C14        -1.7994    3.3925    0.5591 C.ar      1 <0>        -0.0728
     21 C15        -1.9896    2.0429    0.7747 C.ar      1 <0>        -0.1006
     22 C16        -0.9024    1.2064    0.9486 C.ar      1 <0>        -0.1000
     23 C17         0.3873    1.7170    0.8960 C.ar      1 <0>         0.1082
     24 C18         0.5888    3.0692    0.6739 C.ar      1 <0>        -0.0878
     25 O2          1.4527    0.8897    1.0620 O.3       1 <0>        -0.4910
     26 H1         -2.3041    2.3423   -3.2499 H         1 <0>         0.1420
     27 H2         -0.6814    3.6048   -1.9009 H         1 <0>         0.1328
     28 H3         -3.5495    6.7518   -1.4122 H         1 <0>         0.1355
     29 H4         -4.5366    3.2746   -3.6895 H         1 <0>         0.1413
     30 H5         -5.4667    6.1211   -3.6258 H         1 <0>         0.3981
     31 H6          3.2168    9.5509    2.7474 H         1 <0>         0.4505
     32 H7          2.8681   10.9682    1.9153 H         1 <0>         0.4360
     33 H8         -1.0786    9.6727   -1.9638 H         1 <0>         0.4660
     34 H9         -0.2611   11.0722   -1.5217 H         1 <0>         0.4551
     35 H10        -2.6508    4.0439    0.4285 H         1 <0>         0.1347
     36 H11        -2.9907    1.6395    0.8122 H         1 <0>         0.1439
     37 H12        -1.0570    0.1516    1.1216 H         1 <0>         0.1432
     38 H13         1.5917    3.4677    0.6320 H         1 <0>         0.1399
     39 H14         1.7833    0.5042    0.2390 H         1 <0>         0.3983
     40 N6          1.6721    8.0166    1.5591 N.ar      1 <0>        -0.4678
     41 H15         0.4762    9.5473   -0.2317 H         1 <0>         0.4052
@<TRIPOS>BOND
     1    1    6 ar
     2    1    2 ar
     3    1   26 1
     4    2    3 ar
     5    2   27 1
     6    3    4 ar
     7    3    8 1
     8    4    5 ar
     9    4   28 1
    10    5    6 ar
    11    5    7 1
    12    6   29 1
    13    7   30 1
    14    8   13 ar
    15    8    9 ar
    16    9   10 ar
    17    9   19 1
    18   10   11 ar
    19   11   12 ar
    20   11   40 ar
    21   12   13 ar
    22   12   14 ar
    23   14   15 ar
    24   14   18 1
    25   15   16 ar
    26   15   41 1
    27   16   17 1
    28   16   40 ar
    29   17   31 1
    30   17   32 1
    31   18   33 1
    32   18   34 1
    33   19   24 ar
    34   19   20 ar
    35   20   21 ar
    36   20   35 1
    37   21   22 ar
    38   21   36 1
    39   22   23 ar
    40   22   37 1
    41   23   24 ar
    42   23   25 1
    43   24   38 1
    44   25   39 1
@<TRIPOS>MOLECULE
ZINC29127351
   55    59     0     0     0
SMALL
USER_CHARGES
2-methyl-2-[4-[3-methyl-2-oxo-8-[2-(3-pyridyl)ethynyl]imidazo[4,5-c]quinolin-1-yl]phenyl]propanenitrile
@<TRIPOS>ATOM
      1 C1         -4.7269    5.3815    1.3628 C.3       1 <0>        -0.1524
      2 C2         -4.6650    4.5971    0.0506 C.3       1 <0>         0.0804
      3 C3         -4.6138    5.5742   -1.1257 C.3       1 <0>        -0.1452
      4 C4         -5.8605    3.7468   -0.0696 C.1       1 <0>         0.2086
      5 N1         -6.7831    3.0905   -0.1624 N.1       1 <0>        -0.4152
      6 C5         -3.4306    3.7328    0.0397 C.ar      1 <0>        -0.0669
      7 C6         -3.1611    2.9284   -1.0523 C.ar      1 <0>        -0.0949
      8 C7         -2.0303    2.1354   -1.0654 C.ar      1 <0>        -0.0925
      9 C8         -1.1637    2.1465    0.0195 C.ar      1 <0>         0.1317
     10 C9         -1.4399    2.9513    1.1168 C.ar      1 <0>        -0.0961
     11 C10        -2.5695    3.7460    1.1217 C.ar      1 <0>        -0.0965
     12 N2         -0.0162    1.3429    0.0094 N.am      1 <0>        -0.4789
     13 C11         1.2476    1.7435   -0.3821 C.ar      1 <0>         0.1394
     14 C12         1.8016    2.9527   -0.8539 C.ar      1 <0>        -0.0685
     15 C13         1.0184    4.1001   -1.0187 C.ar      1 <0>        -0.0715
     16 C14         1.6065    5.2671   -1.4867 C.ar      1 <0>         0.0248
     17 C15         2.9796    5.2966   -1.7927 C.ar      1 <0>        -0.0785
     18 C16         3.7511    4.1910   -1.6376 C.ar      1 <0>        -0.0792
     19 C17         3.1843    2.9925   -1.1655 C.ar      1 <0>         0.1403
     20 N3          3.9373    1.8974   -1.0103 N.ar      1 <0>        -0.4576
     21 C18         3.4379    0.7657   -0.5728 C.ar      1 <0>         0.1754
     22 C19         2.0881    0.6439   -0.2446 C.ar      1 <0>         0.0245
     23 N4          1.3028   -0.4032    0.2310 N.am      1 <0>        -0.5231
     24 C20         0.0413    0.0474    0.3741 C.2       1 <0>         0.6771
     25 O1         -0.9002   -0.6134    0.7712 O.2       1 <0>        -0.5337
     26 C21         1.7684   -1.7607    0.5254 C.3       1 <0>         0.0896
     27 C22         0.8124    6.4463   -1.6584 C.1       1 <0>        -0.1046
     28 C23         0.1614    7.4131   -1.7992 C.1       1 <0>        -0.1065
     29 C24        -0.6327    8.5923   -1.9709 C.ar      1 <0>        -0.0378
     30 C25        -2.0029    8.5784   -1.6759 C.ar      1 <0>        -0.0528
     31 C26        -2.7236    9.7453   -1.8552 C.ar      1 <0>        -0.1690
     32 C27        -2.0776   10.8755   -2.3245 C.ar      1 <0>         0.1087
     33 N5         -0.7874   10.8588   -2.5990 N.ar      1 <0>        -0.4804
     34 C28        -0.0564    9.7751   -2.4410 C.ar      1 <0>         0.1285
     35 H1         -4.7637    4.6790    2.2085 H         1 <0>         0.0724
     36 H2         -5.6280    6.0124    1.3707 H         1 <0>         0.0755
     37 H3         -3.8335    6.0170    1.4526 H         1 <0>         0.0850
     38 H4         -4.5693    5.0103   -2.0691 H         1 <0>         0.0704
     39 H5         -3.7204    6.2097   -1.0359 H         1 <0>         0.0798
     40 H6         -5.5149    6.2051   -1.1178 H         1 <0>         0.0762
     41 H7         -3.8356    2.9200   -1.8957 H         1 <0>         0.1349
     42 H8         -1.8205    1.5072   -1.9184 H         1 <0>         0.1326
     43 H9         -0.7699    2.9589    1.9638 H         1 <0>         0.1342
     44 H10        -2.7827    4.3752    1.9731 H         1 <0>         0.1460
     45 H11        -0.0354    4.0782   -0.7833 H         1 <0>         0.1345
     46 H12         3.4253    6.2109   -2.1557 H         1 <0>         0.1400
     47 H13         4.8034    4.2311   -1.8772 H         1 <0>         0.1489
     48 H14         4.0869   -0.0907   -0.4641 H         1 <0>         0.1715
     49 H15         0.9246   -2.3677    0.8855 H         1 <0>         0.0998
     50 H16         2.5484   -1.7209    1.3000 H         1 <0>         0.0826
     51 H17         2.1818   -2.2128   -0.3883 H         1 <0>         0.0825
     52 H18        -2.4828    7.6808   -1.3148 H         1 <0>         0.1395
     53 H19        -3.7806    9.7729   -1.6351 H         1 <0>         0.1435
     54 H20        -2.6394   11.7865   -2.4688 H         1 <0>         0.1613
     55 H21         0.9974    9.8008   -2.6763 H         1 <0>         0.1616
@<TRIPOS>BOND
     1    1    2 1
     2    1   35 1
     3    1   36 1
     4    1   37 1
     5    2    3 1
     6    2    4 1
     7    2    6 1
     8    3   38 1
     9    3   39 1
    10    3   40 1
    11    4    5 3
    12    6   11 ar
    13    6    7 ar
    14    7    8 ar
    15    7   41 1
    16    8    9 ar
    17    8   42 1
    18    9   10 ar
    19    9   12 1
    20   10   11 ar
    21   10   43 1
    22   11   44 1
    23   12   24 am
    24   12   13 1
    25   13   22 ar
    26   13   14 ar
    27   14   19 ar
    28   14   15 ar
    29   15   16 ar
    30   15   45 1
    31   16   17 ar
    32   16   27 1
    33   17   18 ar
    34   17   46 1
    35   18   19 ar
    36   18   47 1
    37   19   20 ar
    38   20   21 ar
    39   21   22 ar
    40   21   48 1
    41   22   23 1
    42   23   24 am
    43   23   26 1
    44   24   25 2
    45   26   49 1
    46   26   50 1
    47   26   51 1
    48   27   28 3
    49   28   29 1
    50   29   34 ar
    51   29   30 ar
    52   30   31 ar
    53   30   52 1
    54   31   32 ar
    55   31   53 1
    56   32   33 ar
    57   32   54 1
    58   33   34 ar
    59   34   55 1
@<TRIPOS>MOLECULE
ZINC03935700
   57    61     0     0     0
SMALL
USER_CHARGES
[hydroxy-(methoxymethyl)-dimethyl-dioxo-BLAHyl] acetate
@<TRIPOS>ATOM
      1 C1         -0.9932    1.0658    3.6675 C.3       1 <0>        -0.1489
      2 C2         -0.4155    0.6979    2.3252 C.2       1 <0>         0.4600
      3 O1          0.2120   -0.3268    2.1979 O.2       1 <0>        -0.5026
      4 O2         -0.5980    1.5084    1.2710 O.3       1 <0>        -0.3522
      5 C3         -0.0128    1.0903    0.0080 C.3       1 <0>         0.1246
      6 H1          0.0021   -0.0041    0.0020 H         1 <0>         0.1074
      7 C4          1.4335    1.5813   -0.0031 C.3       1 <0>        -0.1211
      8 C5          1.8826    1.7610   -1.4367 C.3       1 <0>        -0.0498
      9 C6          0.9889    2.8853   -2.0137 C.3       1 <0>        -0.0565
     10 H2          1.0243    3.7570   -1.3516 H         1 <0>         0.1001
     11 C7          1.6959    3.2206   -3.3256 C.3       1 <0>        -0.1004
     12 C8          3.2001    3.1515   -2.9465 C.3       1 <0>        -0.1586
     13 C9          3.2874    2.3304   -1.6373 C.3       1 <0>         0.1146
     14 H3          3.5516    2.9739   -0.7987 H         1 <0>         0.0640
     15 O3          4.2336    1.2692   -1.7707 O.3       1 <0>        -0.5568
     16 C10        -0.4177    2.3898   -2.0902 C.2       1 <0>        -0.1084
     17 C11        -0.8750    1.5613   -1.1390 C.2       1 <0>        -0.0254
     18 C12        -2.2775    1.0043   -1.1985 C.3       1 <0>        -0.0008
     19 C13        -3.0897    1.7596   -2.2125 C.2       1 <0>        -0.1297
     20 C14        -4.5067    1.6838   -2.2747 C.2       1 <0>        -0.2717
     21 C15        -4.8531    2.3923   -3.3765 C.2       1 <0>         0.1083
     22 O4         -3.7279    2.9034   -3.9332 O.3       1 <0>        -0.1276
     23 C16        -2.6640    2.5730   -3.1992 C.2       1 <0>        -0.0589
     24 C17        -1.2238    2.8519   -3.2527 C.2       1 <0>         0.4729
     25 O5         -0.7256    3.4344   -4.2026 O.2       1 <0>        -0.4052
     26 C18        -5.1797    0.9247   -1.2041 C.2       1 <0>         0.5692
     27 O6         -6.3316    0.5422   -1.3133 O.2       1 <0>        -0.4447
     28 O7         -4.4543    0.6726   -0.0859 O.3       1 <0>        -0.3361
     29 C19        -3.0845    1.1150    0.0902 C.3       1 <0>         0.1424
     30 H4         -2.6257    0.5254    0.8664 H         1 <0>         0.1333
     31 C20        -3.1479    2.5856    0.5106 C.3       1 <0>         0.0366
     32 O8         -3.8012    2.6913    1.7771 O.3       1 <0>        -0.3752
     33 C21        -3.9132    4.0303    2.2634 C.3       1 <0>         0.0297
     34 C22        -2.2201   -0.4689   -1.6236 C.3       1 <0>        -0.1423
     35 C23         1.7404    0.4620   -2.2274 C.3       1 <0>        -0.1328
     36 H5         -1.5213    2.0160    3.5877 H         1 <0>         0.0948
     37 H6         -1.6879    0.2899    3.9891 H         1 <0>         0.1100
     38 H7         -0.1882    1.1577    4.3967 H         1 <0>         0.1072
     39 H8          1.5005    2.5340    0.5289 H         1 <0>         0.0849
     40 H9          2.0740    0.8509    0.4989 H         1 <0>         0.0909
     41 H10         1.4558    2.4969   -4.1037 H         1 <0>         0.0766
     42 H11         1.4314    4.2282   -3.6572 H         1 <0>         0.0784
     43 H12         3.7658    2.6588   -3.7380 H         1 <0>         0.0790
     44 H13         3.5919    4.1574   -2.7840 H         1 <0>         0.0719
     45 H14         5.1440    1.5681   -1.9006 H         1 <0>         0.3798
     46 H15        -5.8568    2.5245   -3.7467 H         1 <0>         0.2349
     47 H16        -2.1367    2.9850    0.5889 H         1 <0>         0.0830
     48 H17        -3.7058    3.1528   -0.2345 H         1 <0>         0.0538
     49 H18        -2.9179    4.4597    2.3781 H         1 <0>         0.0446
     50 H19        -4.4870    4.6275    1.5547 H         1 <0>         0.0405
     51 H20        -4.4201    4.0252    3.2283 H         1 <0>         0.0917
     52 H21        -1.7546   -0.5457   -2.6062 H         1 <0>         0.0777
     53 H22        -1.6340   -1.0337   -0.8987 H         1 <0>         0.0814
     54 H23        -3.2311   -0.8739   -1.6679 H         1 <0>         0.0765
     55 H24         0.6945    0.1553   -2.2375 H         1 <0>         0.0488
     56 H25         2.0826    0.6199   -3.2502 H         1 <0>         0.0649
     57 H26         2.3427   -0.3164   -1.7589 H         1 <0>         0.0712
@<TRIPOS>BOND
     1    1    2 1
     2    1   36 1
     3    1   37 1
     4    1   38 1
     5    2    3 2
     6    2    4 1
     7    4    5 1
     8    5    6 1
     9    5   17 1
    10    5    7 1
    11    7    8 1
    12    7   39 1
    13    7   40 1
    14    8   13 1
    15    8    9 1
    16    8   35 1
    17    9   10 1
    18    9   11 1
    19    9   16 1
    20   11   12 1
    21   11   41 1
    22   11   42 1
    23   12   13 1
    24   12   43 1
    25   12   44 1
    26   13   14 1
    27   13   15 1
    28   15   45 1
    29   16   24 1
    30   16   17 2
    31   17   18 1
    32   18   29 1
    33   18   19 1
    34   18   34 1
    35   19   23 2
    36   19   20 1
    37   20   21 2
    38   20   26 1
    39   21   22 1
    40   21   46 1
    41   22   23 1
    42   23   24 1
    43   24   25 2
    44   26   27 2
    45   26   28 1
    46   28   29 1
    47   29   30 1
    48   29   31 1
    49   31   32 1
    50   31   47 1
    51   31   48 1
    52   32   33 1
    53   33   49 1
    54   33   50 1
    55   33   51 1
    56   34   52 1
    57   34   53 1
    58   34   54 1
    59   35   55 1
    60   35   56 1
    61   35   57 1
@<TRIPOS>MOLECULE
ZINC14975141
   57    61     0     0     0
SMALL
USER_CHARGES
[hydroxy-(methoxymethyl)-dimethyl-dioxo-BLAHyl] acetate
@<TRIPOS>ATOM
      1 C1          1.6451    7.4746   -3.1598 C.3       1 <0>        -0.1507
      2 C2          0.6468    6.3672   -2.9402 C.2       1 <0>         0.4598
      3 O1         -0.5372    6.6055   -2.9753 O.2       1 <0>        -0.5003
      4 O2          1.0731    5.1162   -2.7057 O.3       1 <0>        -0.3505
      5 C3          0.0576    4.1022   -2.5038 C.3       1 <0>         0.1199
      6 H1         -0.8402    4.4138   -3.0492 H         1 <0>         0.1154
      7 C4         -0.2596    4.0442   -1.0145 C.3       1 <0>        -0.1231
      8 C5         -1.3302    2.9847   -0.7582 C.3       1 <0>        -0.0415
      9 C6         -0.8107    1.6196   -1.2029 C.3       1 <0>        -0.0427
     10 H2         -1.6571    0.9525   -1.3974 H         1 <0>         0.1050
     11 C7         -0.0127    1.0867    0.0080 C.3       1 <0>        -0.1147
     12 C8         -0.7909    1.6076    1.2331 C.3       1 <0>        -0.1566
     13 C9         -1.5302    2.8735    0.7715 C.3       1 <0>         0.1109
     14 H3         -1.1093    3.7516    1.2636 H         1 <0>         0.0633
     15 O3         -2.9228    2.7676    1.0745 O.3       1 <0>        -0.5578
     16 C10         0.0803    1.6422   -2.4152 C.2       1 <0>        -0.1201
     17 C11         0.4950    2.7523   -3.0247 C.2       1 <0>        -0.0266
     18 C12         1.3328    2.7288   -4.2777 C.3       1 <0>         0.0065
     19 C13         1.8348    1.3327   -4.5257 C.2       1 <0>        -0.1276
     20 C14         2.8689    1.0319   -5.4499 C.2       1 <0>        -0.2738
     21 C15         2.9261   -0.3202   -5.4986 C.2       1 <0>         0.1083
     22 O4          2.0351   -0.8221   -4.6097 O.3       1 <0>        -0.1285
     23 C16         1.4117    0.1771   -3.9784 C.2       1 <0>        -0.0599
     24 C17         0.4223    0.2677   -2.9033 C.2       1 <0>         0.4661
     25 O5         -0.0989   -0.7279   -2.4253 O.2       1 <0>        -0.4107
     26 C18         3.5753    2.1784   -6.0506 C.2       1 <0>         0.5699
     27 O6          4.2518    2.0606   -7.0574 O.2       1 <0>        -0.4464
     28 O7          3.4303    3.3698   -5.4257 O.3       1 <0>        -0.3387
     29 C19         2.5865    3.5919   -4.2704 C.3       1 <0>         0.1431
     30 H4          2.3202    4.6389   -4.2765 H         1 <0>         0.1444
     31 C20         3.4113    3.2676   -3.0266 C.3       1 <0>         0.0429
     32 O8          4.5295    4.1543   -2.9520 O.3       1 <0>        -0.3735
     33 C21         5.3709    3.9345   -1.8181 C.3       1 <0>         0.0302
     34 C22         0.4554    3.1432   -5.4707 C.3       1 <0>        -0.1396
     35 C23        -2.6539    3.3354   -1.4463 C.3       1 <0>        -0.1285
     36 H5          2.2631    7.2401   -4.0265 H         1 <0>         0.1051
     37 H6          1.1160    8.4116   -3.3336 H         1 <0>         0.1054
     38 H7          2.2783    7.5731   -2.2780 H         1 <0>         0.1044
     39 H8         -0.6223    5.0201   -0.6833 H         1 <0>         0.0870
     40 H9          0.6466    3.7947   -0.4591 H         1 <0>         0.0837
     41 H10         0.0021   -0.0041    0.0020 H         1 <0>         0.0808
     42 H11         1.0029    1.4803    0.0004 H         1 <0>         0.0687
     43 H12        -1.5058    0.8567    1.5701 H         1 <0>         0.0810
     44 H13        -0.0984    1.8503    2.0395 H         1 <0>         0.0733
     45 H14        -3.1153    2.6946    2.0193 H         1 <0>         0.3791
     46 H15         3.5746   -0.8988   -6.1398 H         1 <0>         0.2355
     47 H16         2.7917    3.3885   -2.1380 H         1 <0>         0.0753
     48 H17         3.7667    2.2387   -3.0844 H         1 <0>         0.0522
     49 H18         5.7670    2.9195   -1.8509 H         1 <0>         0.0404
     50 H19         6.1956    4.6470   -1.8342 H         1 <0>         0.0916
     51 H20         4.7920    4.0693   -0.9045 H         1 <0>         0.0431
     52 H21         0.0681    4.1485   -5.3050 H         1 <0>         0.0785
     53 H22         1.0522    3.1295   -6.3827 H         1 <0>         0.0762
     54 H23        -0.3760    2.4454   -5.5700 H         1 <0>         0.0767
     55 H24        -3.4032    2.5840   -1.1970 H         1 <0>         0.0735
     56 H25        -2.9928    4.3136   -1.1052 H         1 <0>         0.0646
     57 H26        -2.5072    3.3579   -2.5262 H         1 <0>         0.0500
@<TRIPOS>BOND
     1    1    2 1
     2    1   36 1
     3    1   37 1
     4    1   38 1
     5    2    3 2
     6    2    4 1
     7    4    5 1
     8    5    6 1
     9    5   17 1
    10    5    7 1
    11    7    8 1
    12    7   39 1
    13    7   40 1
    14    8   13 1
    15    8    9 1
    16    8   35 1
    17    9   10 1
    18    9   11 1
    19    9   16 1
    20   11   12 1
    21   11   41 1
    22   11   42 1
    23   12   13 1
    24   12   43 1
    25   12   44 1
    26   13   14 1
    27   13   15 1
    28   15   45 1
    29   16   24 1
    30   16   17 2
    31   17   18 1
    32   18   29 1
    33   18   19 1
    34   18   34 1
    35   19   23 2
    36   19   20 1
    37   20   21 2
    38   20   26 1
    39   21   22 1
    40   21   46 1
    41   22   23 1
    42   23   24 1
    43   24   25 2
    44   26   27 2
    45   26   28 1
    46   28   29 1
    47   29   30 1
    48   29   31 1
    49   31   32 1
    50   31   47 1
    51   31   48 1
    52   32   33 1
    53   33   49 1
    54   33   50 1
    55   33   51 1
    56   34   52 1
    57   34   53 1
    58   34   54 1
    59   35   55 1
    60   35   56 1
    61   35   57 1
@<TRIPOS>MOLECULE
ZINC27646328
   29    31     0     0     0
SMALL
USER_CHARGES

@<TRIPOS>ATOM
      1 C1         -0.0167    1.3827    0.0096 C.ar      1 <0>        -0.1625
      2 C2          1.1644    2.0935    0.0022 C.ar      1 <0>        -0.0388
      3 C3          2.3857    1.4152   -0.0131 C.ar      1 <0>        -0.0794
      4 C4          2.4009    0.0127   -0.0207 C.ar      1 <0>         0.1715
      5 C5          1.2066   -0.6872   -0.0131 C.ar      1 <0>        -0.1838
      6 C6          0.0021   -0.0041    0.0020 C.ar      1 <0>         0.1383
      7 F1         -1.1606   -0.6920    0.0098 F         1 <0>        -0.1281
      8 O1          3.5826   -0.6560   -0.0360 O.3       1 <0>        -0.4846
      9 C7          3.6520    2.1698   -0.0216 C.2       1 <0>         0.0882
     10 C8          3.9644    3.2071   -0.8727 C.2       1 <0>        -0.1983
     11 C9          5.2519    3.6341   -0.5407 C.2       1 <0>        -0.1129
     12 C10         5.6803    2.8374    0.5067 C.2       1 <0>        -0.0435
     13 O2          4.6941    1.9649    0.8044 O.3       1 <0>        -0.1430
     14 C11         6.9299    2.9248    1.1543 C.2       1 <0>         0.1171
     15 C12         7.2286    2.0736    2.1798 C.2       1 <0>        -0.2286
     16 C13         8.4122    1.9867    2.9715 C.2       1 <0>         0.5618
     17 O3          9.3505    2.7398    2.7812 O.2       1 <0>        -0.4759
     18 N1          8.4605    1.0653    3.9178 N.am      1 <0>        -0.6867
     19 C14         7.4191    0.2301    4.1290 C.2       1 <0>         0.5477
     20 O4          7.3101   -0.6602    4.9509 O.2       1 <0>        -0.4138
     21 S1          6.2400    0.7704    2.9006 S.3       1 <0>        -0.0353
     22 H1         -0.9604    1.9078    0.0260 H         1 <0>         0.1491
     23 H2          1.1456    3.1733    0.0078 H         1 <0>         0.1476
     24 H3          1.2142   -1.7671   -0.0189 H         1 <0>         0.1509
     25 H4          3.9337   -0.8544    0.8429 H         1 <0>         0.4019
     26 H5          3.3335    3.6127   -1.6499 H         1 <0>         0.1635
     27 H6          5.8067    4.4324   -1.0111 H         1 <0>         0.1684
     28 H7          7.6507    3.6648    0.8393 H         1 <0>         0.1869
     29 H8          9.2552    0.9871    4.4686 H         1 <0>         0.4224
@<TRIPOS>BOND
     1    1    6 ar
     2    1    2 ar
     3    1   22 1
     4    2    3 ar
     5    2   23 1
     6    3    4 ar
     7    3    9 1
     8    4    5 ar
     9    4    8 1
    10    5    6 ar
    11    5   24 1
    12    6    7 1
    13    8   25 1
    14    9   13 1
    15    9   10 2
    16   10   11 1
    17   10   26 1
    18   11   12 2
    19   11   27 1
    20   12   13 1
    21   12   14 1
    22   14   15 2
    23   14   28 1
    24   15   21 1
    25   15   16 1
    26   16   17 2
    27   16   18 am
    28   18   19 am
    29   18   29 1
    30   19   20 2
    31   19   21 1
@<TRIPOS>MOLECULE
ZINC00171814
   31    34     0     0     0
SMALL
USER_CHARGES
morpholinoBLAH
@<TRIPOS>ATOM
      1 C1         -3.4507   -1.6165    0.0261 C.ar      1 <0>        -0.1819
      2 C2         -2.5206   -0.6003    0.0228 C.ar      1 <0>         0.0014
      3 C3         -1.1467   -0.9292    0.0076 C.ar      1 <0>        -0.1427
      4 C4          0.0021   -0.0041    0.0020 C.ar      1 <0>         0.2109
      5 C5          1.2682   -0.6013   -0.0133 C.ar      1 <0>        -0.2502
      6 C6          2.4217    0.1713   -0.0204 C.ar      1 <0>         0.4161
      7 N1          2.2935    1.4977   -0.0123 N.ar      1 <0>        -0.5352
      8 C7          1.0919    2.0450    0.0026 C.ar      1 <0>         0.3302
      9 N2         -0.0163    1.3477    0.0095 N.ar      1 <0>        -0.5136
     10 N3          3.6746   -0.4217   -0.0360 N.pl3     1 <0>        -0.4697
     11 C8          3.8368   -1.3406    1.1001 C.3       1 <0>         0.0180
     12 C9          5.2075   -2.0167    1.0111 C.3       1 <0>         0.0648
     13 O1          6.2266   -1.0140    0.9760 O.3       1 <0>        -0.3791
     14 C10         6.0997   -0.1021   -0.1185 C.3       1 <0>         0.0590
     15 C11         4.7380    0.5934   -0.0409 C.3       1 <0>         0.0275
     16 S1          0.9431   -2.3427   -0.0201 S.3       1 <0>         0.1518
     17 C12        -0.8326   -2.3003   -0.0032 C.ar      1 <0>         0.1172
     18 N4         -1.7554   -3.2386   -0.0002 N.ar      1 <0>        -0.4493
     19 C13        -3.0405   -2.9391    0.0143 C.ar      1 <0>         0.1524
     20 H1         -4.5046   -1.3806    0.0377 H         1 <0>         0.1510
     21 H2         -2.8370    0.4323    0.0320 H         1 <0>         0.1489
     22 H3          1.0196    3.1226    0.0091 H         1 <0>         0.2064
     23 H4          3.7666   -0.7815    2.0332 H         1 <0>         0.0663
     24 H5          3.0543   -2.0988    1.0696 H         1 <0>         0.0966
     25 H6          5.2580   -2.6190    0.1041 H         1 <0>         0.0682
     26 H7          5.3558   -2.6561    1.8813 H         1 <0>         0.1117
     27 H8          6.1762   -0.6488   -1.0584 H         1 <0>         0.0644
     28 H9          6.8929    0.6436   -0.0648 H         1 <0>         0.1096
     29 H10         4.6134    1.2469   -0.9043 H         1 <0>         0.1027
     30 H11         4.6818    1.1838    0.8736 H         1 <0>         0.0688
     31 H12        -3.7762   -3.7297    0.0166 H         1 <0>         0.1778
@<TRIPOS>BOND
     1    1   19 ar
     2    1    2 ar
     3    1   20 1
     4    2    3 ar
     5    2   21 1
     6    3   17 ar
     7    3    4 1
     8    4    9 ar
     9    4    5 ar
    10    5    6 ar
    11    5   16 1
    12    6    7 ar
    13    6   10 1
    14    7    8 ar
    15    8    9 ar
    16    8   22 1
    17   10   15 1
    18   10   11 1
    19   11   12 1
    20   11   23 1
    21   11   24 1
    22   12   13 1
    23   12   25 1
    24   12   26 1
    25   13   14 1
    26   14   15 1
    27   14   27 1
    28   14   28 1
    29   15   29 1
    30   15   30 1
    31   16   17 1
    32   17   18 ar
    33   18   19 ar
    34   19   31 1
@<TRIPOS>MOLECULE
ZINC28652818
   41    43     0     0     0
SMALL
USER_CHARGES

@<TRIPOS>ATOM
      1 C1          0.3557    1.3635   -0.3008 C.3       1 <0>        -0.1879
      2 C2          0.5315   -0.1323   -0.2509 C.ar      1 <0>         0.0663
      3 C3          0.7071   -0.8472   -1.4213 C.ar      1 <0>        -0.1375
      4 C4          0.8683   -2.2191   -1.3755 C.ar      1 <0>         0.0033
      5 C5          0.8546   -2.8766   -0.1593 C.ar      1 <0>        -0.0742
      6 C6          0.6800   -2.1619    1.0107 C.ar      1 <0>         0.0555
      7 C7          0.5230   -0.7890    0.9652 C.ar      1 <0>        -0.6840
      8 S1          0.3065    0.1229    2.4573 S.o2      1 <0>         2.7206
      9 O1         -0.8241    0.9610    2.2606 O.2       1 <0>        -0.9295
     10 O2          0.3832   -0.8155    3.5216 O.2       1 <0>        -0.9174
     11 N1          1.6163    1.1240    2.6137 N.pl3     1 <0>        -0.8462
     12 C8          1.4903    2.5495    2.3001 C.3       1 <0>         0.0283
     13 N2          2.8449    0.6078    3.0459 N.2       1 <0>        -0.2167
     14 C9          3.8734    1.3939    3.1687 C.2       1 <0>         0.1615
     15 C10         5.1597    0.8535    3.6212 C.2       1 <0>        -0.0534
     16 C11         5.4345   -0.4596    3.9465 C.2       1 <0>         0.1136
     17 N3          6.7110   -0.5407    4.3087 N.2       1 <0>        -0.4816
     18 C12         7.2744    0.6597    4.2325 C.2       1 <0>         0.2477
     19 N4          6.3319    1.5562    3.7991 N.pl3     1 <0>        -0.3475
     20 C13         6.6529    2.8712    3.6276 C.2       1 <0>         0.0941
     21 C14         7.9053    3.3115    3.8785 C.2       1 <0>        -0.1118
     22 C15         8.8940    2.4167    4.3204 C.2       1 <0>        -0.0779
     23 C16         8.5830    1.1042    4.5031 C.2       1 <0>        -0.0635
     24 Br1         8.3288    5.1382    3.6335 Br        1 <0>        -0.0023
     25 N5          1.0263   -4.3459   -0.1104 N.pl3     1 <0>         0.0322
     26 O3          1.1786   -4.9712   -1.1339 O.2       1 <0>        -0.1512
     27 O4          1.0143   -4.9209    0.9531 O.3       1 <0>        -0.1448
     28 H1          1.3132    1.8485   -0.1108 H         1 <0>         0.0971
     29 H2         -0.0093    1.6538   -1.2860 H         1 <0>         0.1013
     30 H3         -0.3640    1.6703    0.4582 H         1 <0>         0.1139
     31 H4          0.7178   -0.3336   -2.3713 H         1 <0>         0.1591
     32 H5          1.0048   -2.7776   -2.2898 H         1 <0>         0.1645
     33 H6          0.6689   -2.6755    1.9607 H         1 <0>         0.1759
     34 H7          1.2939    3.1071    3.2159 H         1 <0>         0.0797
     35 H8          2.4167    2.9057    1.8495 H         1 <0>         0.0820
     36 H9          0.6666    2.6965    1.6015 H         1 <0>         0.1041
     37 H10         3.7806    2.4448    2.9375 H         1 <0>         0.1306
     38 H11         4.7330   -1.2800    3.9129 H         1 <0>         0.1976
     39 H12         5.8992    3.5661    3.2878 H         1 <0>         0.1732
     40 H13         9.8948    2.7699    4.5203 H         1 <0>         0.1576
     41 H14         9.3362    0.4077    4.8406 H         1 <0>         0.1676
@<TRIPOS>BOND
     1    1    2 1
     2    1   28 1
     3    1   29 1
     4    1   30 1
     5    2    7 ar
     6    2    3 ar
     7    3    4 ar
     8    3   31 1
     9    4    5 ar
    10    4   32 1
    11    5    6 ar
    12    5   25 1
    13    6    7 ar
    14    6   33 1
    15    7    8 1
    16    8    9 2
    17    8   10 2
    18    8   11 1
    19   11   12 1
    20   11   13 1
    21   12   34 1
    22   12   35 1
    23   12   36 1
    24   13   14 2
    25   14   15 1
    26   14   37 1
    27   15   19 1
    28   15   16 2
    29   16   17 1
    30   16   38 1
    31   17   18 2
    32   18   23 1
    33   18   19 1
    34   19   20 1
    35   20   21 2
    36   20   39 1
    37   21   22 1
    38   21   24 1
    39   22   23 2
    40   22   40 1
    41   23   41 1
    42   25   26 2
    43   25   27 1
@<TRIPOS>MOLECULE
ZINC29134545
   73    76     0     0     0
SMALL
USER_CHARGES
[(3aR,6E,9S,9aR,10R,11aS)-6-[(diallylamino)methylene]-5-hydroxy-9-(methoxymethyl)-9a,11a-dimethyl-1,4,7-trioxo-2,3,3a,9,10,11-hexahydroindeno[4,5-h]isochromen-10-yl] acetate
@<TRIPOS>ATOM
      1 C1          4.2785    3.3424   -5.6688 C.3       1 <0>        -0.1564
      2 C2          4.3853    2.3998   -4.4979 C.2       1 <0>         0.4592
      3 O1          5.4097    2.3429   -3.8597 O.2       1 <0>        -0.5031
      4 O2          3.3425    1.6235   -4.1639 O.3       1 <0>        -0.3448
      5 C3          3.5166    0.7398   -3.0249 C.3       1 <0>         0.1180
      6 H1          4.2435    1.1768   -2.3244 H         1 <0>         0.1124
      7 C4          4.0671   -0.5975   -3.5246 C.3       1 <0>        -0.1147
      8 C5          3.7531   -1.6270   -2.4565 C.3       1 <0>        -0.1082
      9 C6          2.2120   -1.8117   -2.5082 C.3       1 <0>        -0.0522
     10 H2          1.7041   -1.9693   -3.4711 H         1 <0>         0.1061
     11 C7          2.0322   -3.0412   -1.6143 C.3       1 <0>        -0.1020
     12 C8          3.2194   -3.9447   -2.0519 C.3       1 <0>        -0.1804
     13 C9          4.2729   -3.0182   -2.6542 C.2       1 <0>         0.3891
     14 O3          5.3108   -3.3402   -3.1810 O.2       1 <0>        -0.4284
     15 C10         1.5945   -0.5361   -2.0438 C.2       1 <0>        -0.1408
     16 C11         2.1955    0.6255   -2.2966 C.2       1 <0>        -0.0431
     17 C12         1.5867    1.9269   -1.8440 C.3       1 <0>        -0.0164
     18 C13         1.5312    2.9196   -3.0087 C.3       1 <0>         0.1344
     19 H3          2.5429    3.1529   -3.3721 H         1 <0>         0.1361
     20 O4          0.9501    4.1734   -2.5514 O.3       1 <0>        -0.3588
     21 C14        -0.2983    4.1035   -2.0197 C.2       1 <0>         0.5441
     22 O5         -1.1877    4.8566   -2.3668 O.2       1 <0>        -0.4647
     23 C15        -0.5149    3.0541   -0.9890 C.2       1 <0>        -0.3449
     24 C16        -1.3290    3.2384    0.1127 C.2       1 <0>         0.2834
     25 N1         -1.1672    2.4651    1.2095 N.pl3     1 <0>        -0.5566
     26 C17         0.1503    1.9074    1.5247 C.3       1 <0>         0.1200
     27 C18         0.8409    2.7891    2.5330 C.2       1 <0>        -0.1810
     28 C19         1.2812    2.2791    3.6564 C.2       1 <0>        -0.1744
     29 C20        -2.3094    2.1847    2.0831 C.3       1 <0>         0.1400
     30 C21        -3.0135    0.9408    1.6057 C.2       1 <0>        -0.1633
     31 C22        -3.2052   -0.0601    2.4288 C.2       1 <0>        -0.1879
     32 C23         0.2168    1.7931   -1.2528 C.2       1 <0>        -0.0246
     33 C24        -0.3559    0.6061   -0.9714 C.2       1 <0>         0.0091
     34 C25         0.3140   -0.5911   -1.3164 C.2       1 <0>         0.3997
     35 O6         -0.1683   -1.6687   -1.0123 O.2       1 <0>        -0.4492
     36 O7         -1.5729    0.5595   -0.3645 O.3       1 <0>        -0.4694
     37 C26         0.6710    2.3390   -4.1330 C.3       1 <0>         0.0414
     38 O8          0.7136    3.2111   -5.2642 O.3       1 <0>        -0.3739
     39 C27        -0.0613    2.7587   -6.3764 C.3       1 <0>         0.0281
     40 C28         2.4951    2.5213   -0.7658 C.3       1 <0>        -0.1441
     41 C29         4.1698   -1.1063   -1.0794 C.3       1 <0>        -0.1481
     42 H4          3.2797    3.2537   -6.1210 H         1 <0>         0.1012
     43 H5          5.0436    3.0864   -6.4165 H         1 <0>         0.1084
     44 H6          4.4342    4.3751   -5.3235 H         1 <0>         0.1111
     45 H7          3.5819   -0.8613   -4.4759 H         1 <0>         0.0893
     46 H8          5.1530   -0.5127   -3.6780 H         1 <0>         0.0925
     47 H9          2.0904   -2.7385   -0.5584 H         1 <0>         0.0779
     48 H10         1.0509   -3.4975   -1.8114 H         1 <0>         0.0908
     49 H11         3.6188   -4.4755   -1.1751 H         1 <0>         0.1042
     50 H12         2.8691   -4.6761   -2.7951 H         1 <0>         0.1039
     51 H13        -2.1085    4.0143    0.0969 H         1 <0>         0.1512
     52 H14         0.0303    0.8969    1.9425 H         1 <0>         0.0763
     53 H15         0.7555    1.8555    0.6076 H         1 <0>         0.1111
     54 H16         0.9753    3.8610    2.3256 H         1 <0>         0.1148
     55 H17         1.7853    2.9227    4.3924 H         1 <0>         0.1053
     56 H18         1.1468    1.2072    3.8638 H         1 <0>         0.0990
     57 H19        -1.9546    2.0327    3.1131 H         1 <0>         0.0844
     58 H20        -3.0079    3.0341    2.0575 H         1 <0>         0.0895
     59 H21        -3.3665    0.8733    0.5661 H         1 <0>         0.1265
     60 H22        -3.7192   -0.9681    2.0803 H         1 <0>         0.1039
     61 H23        -2.8522    0.0074    3.4684 H         1 <0>         0.0973
     62 H24        -2.0370   -0.4114   -0.1365 H         1 <0>         0.4226
     63 H25         1.0588    1.3498   -4.4178 H         1 <0>         0.0753
     64 H26        -0.3680    2.2394   -3.7857 H         1 <0>         0.0525
     65 H27         0.0241    3.4816   -7.2011 H         1 <0>         0.0917
     66 H28        -1.1156    2.6680   -6.0760 H         1 <0>         0.0411
     67 H29         0.3111    1.7783   -6.7082 H         1 <0>         0.0427
     68 H30         2.0734    3.4752   -0.4161 H         1 <0>         0.0848
     69 H31         3.4969    2.6952   -1.1854 H         1 <0>         0.0727
     70 H32         2.5680    1.8208    0.0792 H         1 <0>         0.0703
     71 H33         3.9364   -1.8625   -0.3154 H         1 <0>         0.0717
     72 H34         3.6217   -0.1789   -0.8568 H         1 <0>         0.0734
     73 H35         5.2509   -0.9031   -1.0760 H         1 <0>         0.0728
@<TRIPOS>BOND
     1    1    2 1
     2    1   42 1
     3    1   43 1
     4    1   44 1
     5    2    3 2
     6    2    4 1
     7    4    5 1
     8    5    6 1
     9    5   16 1
    10    5    7 1
    11    7    8 1
    12    7   45 1
    13    7   46 1
    14    8   13 1
    15    8    9 1
    16    8   41 1
    17    9   10 1
    18    9   11 1
    19    9   15 1
    20   11   12 1
    21   11   47 1
    22   11   48 1
    23   12   13 1
    24   12   49 1
    25   12   50 1
    26   13   14 2
    27   15   34 1
    28   15   16 2
    29   16   17 1
    30   17   32 1
    31   17   18 1
    32   17   40 1
    33   18   19 1
    34   18   20 1
    35   18   37 1
    36   20   21 1
    37   21   22 2
    38   21   23 1
    39   23   24 2
    40   23   32 1
    41   24   25 1
    42   24   51 1
    43   25   26 1
    44   25   29 1
    45   26   27 1
    46   26   52 1
    47   26   53 1
    48   27   28 2
    49   27   54 1
    50   28   55 1
    51   28   56 1
    52   29   30 1
    53   29   57 1
    54   29   58 1
    55   30   31 2
    56   30   59 1
    57   31   60 1
    58   31   61 1
    59   32   33 2
    60   33   34 1
    61   33   36 1
    62   34   35 2
    63   36   62 1
    64   37   38 1
    65   37   63 1
    66   37   64 1
    67   38   39 1
    68   39   65 1
    69   39   66 1
    70   39   67 1
    71   40   68 1
    72   40   69 1
    73   40   70 1
    74   41   71 1
    75   41   72 1
    76   41   73 1
@<TRIPOS>MOLECULE
ZINC01619592
   55    59     0     0     0
SMALL
USER_CHARGES

@<TRIPOS>ATOM
      1 C1         -0.0184    1.5028    0.0103 C.3       1 <0>        -0.1511
      2 C2          0.0021   -0.0041    0.0020 C.2       1 <0>         0.4597
      3 O1          1.0565   -0.5939   -0.0112 O.2       1 <0>        -0.4999
      4 O2         -1.1511   -0.6910    0.0093 O.3       1 <0>        -0.3474
      5 C3         -1.0568   -2.1201    0.0008 C.3       1 <0>         0.1219
      6 H1         -0.1268   -2.3839    0.5135 H         1 <0>         0.1078
      7 C4         -0.9300   -2.5524   -1.4583 C.3       1 <0>        -0.1184
      8 C5         -1.5070   -3.9418   -1.6157 C.3       1 <0>        -0.1187
      9 C6         -3.0076   -3.8238   -1.2599 C.3       1 <0>        -0.0498
     10 H2         -3.4688   -3.0269   -1.8517 H         1 <0>         0.1063
     11 C7         -3.5424   -5.1804   -1.7235 C.3       1 <0>        -0.1009
     12 C8         -2.7629   -5.4191   -3.0462 C.3       1 <0>        -0.1830
     13 C9         -1.5465   -4.4997   -3.0127 C.2       1 <0>         0.3855
     14 O3         -0.7805   -4.2605   -3.9130 O.2       1 <0>        -0.4254
     15 C10        -3.1349   -3.4967    0.1921 C.2       1 <0>        -0.1113
     16 C11        -2.2157   -2.7096    0.7678 C.2       1 <0>        -0.0220
     17 C12        -2.2470   -2.4186    2.2520 C.3       1 <0>        -0.0027
     18 C13        -3.5419   -2.8944    2.8428 C.2       1 <0>        -0.1255
     19 C14        -4.0137   -2.4591    4.1090 C.2       1 <0>        -0.2743
     20 C15        -5.1338   -3.1850    4.3420 C.2       1 <0>         0.1107
     21 O4         -5.3667   -3.9750    3.2644 O.3       1 <0>        -0.1272
     22 C16        -4.4651   -3.7201    2.3152 C.2       1 <0>        -0.0593
     23 C17        -4.2994   -4.0888    0.9041 C.2       1 <0>         0.4739
     24 O5         -5.0852   -4.8388    0.3501 O.2       1 <0>        -0.4050
     25 C18        -3.2587   -1.3792    4.7707 C.2       1 <0>         0.5710
     26 O6         -3.4416   -1.0831    5.9367 O.2       1 <0>        -0.4406
     27 O7         -2.3673   -0.7035    4.0022 O.3       1 <0>        -0.3342
     28 C19        -2.1782   -0.9381    2.6104 C.3       1 <0>         0.1418
     29 H3         -1.2274   -0.5290    2.3161 H         1 <0>         0.1331
     30 C20        -3.3080   -0.2057    1.8834 C.3       1 <0>         0.0325
     31 O8         -3.1902    1.1997    2.1137 O.3       1 <0>        -0.3752
     32 C21        -4.2027    1.9802    1.4751 C.3       1 <0>         0.0299
     33 C22        -1.0932   -3.1555    2.9462 C.3       1 <0>        -0.1410
     34 C23        -0.7898   -4.9340   -0.7021 C.3       1 <0>        -0.1431
     35 H4          1.0042    1.8801    0.0026 H         1 <0>         0.1053
     36 H5         -0.5455    1.8639   -0.8728 H         1 <0>         0.1024
     37 H6         -0.5286    1.8543    0.9071 H         1 <0>         0.1090
     38 H7         -1.4691   -1.8509   -2.0999 H         1 <0>         0.0889
     39 H8          0.1251   -2.5564   -1.7479 H         1 <0>         0.0943
     40 H9         -3.3312   -5.9617   -0.9953 H         1 <0>         0.0820
     41 H10        -4.6154   -5.1243   -1.9164 H         1 <0>         0.0922
     42 H11        -2.4449   -6.4590   -3.1085 H         1 <0>         0.1059
     43 H12        -3.3960   -5.1755   -3.9005 H         1 <0>         0.1025
     44 H13        -5.7345   -3.1423    5.2384 H         1 <0>         0.2359
     45 H14        -3.2413   -0.4054    0.8139 H         1 <0>         0.0819
     46 H15        -4.2692   -0.5562    2.2593 H         1 <0>         0.0526
     47 H16        -4.0433    3.0351    1.6985 H         1 <0>         0.0920
     48 H17        -4.1546    1.8258    0.3972 H         1 <0>         0.0450
     49 H18        -5.1825    1.6750    1.8425 H         1 <0>         0.0405
     50 H19        -0.1439   -2.8172    2.5309 H         1 <0>         0.0813
     51 H20        -1.1181   -2.9442    4.0152 H         1 <0>         0.0779
     52 H21        -1.1983   -4.2284    2.7854 H         1 <0>         0.0788
     53 H22        -0.9157   -4.6281    0.3365 H         1 <0>         0.0689
     54 H23        -1.2137   -5.9285   -0.8418 H         1 <0>         0.0723
     55 H24         0.2717   -4.9535   -0.9490 H         1 <0>         0.0724
@<TRIPOS>BOND
     1    1    2 1
     2    1   35 1
     3    1   36 1
     4    1   37 1
     5    2    3 2
     6    2    4 1
     7    4    5 1
     8    5    6 1
     9    5   16 1
    10    5    7 1
    11    7    8 1
    12    7   38 1
    13    7   39 1
    14    8   13 1
    15    8    9 1
    16    8   34 1
    17    9   10 1
    18    9   11 1
    19    9   15 1
    20   11   12 1
    21   11   40 1
    22   11   41 1
    23   12   13 1
    24   12   42 1
    25   12   43 1
    26   13   14 2
    27   15   23 1
    28   15   16 2
    29   16   17 1
    30   17   28 1
    31   17   18 1
    32   17   33 1
    33   18   22 2
    34   18   19 1
    35   19   20 2
    36   19   25 1
    37   20   21 1
    38   20   44 1
    39   21   22 1
    40   22   23 1
    41   23   24 2
    42   25   26 2
    43   25   27 1
    44   27   28 1
    45   28   29 1
    46   28   30 1
    47   30   31 1
    48   30   45 1
    49   30   46 1
    50   31   32 1
    51   32   47 1
    52   32   48 1
    53   32   49 1
    54   33   50 1
    55   33   51 1
    56   33   52 1
    57   34   53 1
    58   34   54 1
    59   34   55 1
@<TRIPOS>MOLECULE
ZINC40379556
   39    42     0     0     0
SMALL
USER_CHARGES

@<TRIPOS>ATOM
      1 C1         -0.0187    1.5258    0.0104 C.3       1 <0>        -0.1579
      2 C2          0.0021   -0.0041    0.0020 C.3       1 <0>         0.1711
      3 C3          0.6305   -0.4771   -1.3062 C.3       1 <0>        -0.0526
      4 C4          0.9055   -1.9689   -1.2096 C.2       1 <0>         0.1846
      5 C5          1.1790   -2.5038    0.0521 C.2       1 <0>        -0.3589
      6 S1          1.4257   -4.2122   -0.3027 S.3       1 <0>         0.2393
      7 C6          1.1742   -4.1291   -1.9692 C.2       1 <0>         0.2992
      8 N1          0.9202   -2.8468   -2.1829 N.2       1 <0>        -0.5762
      9 N2          1.2224   -5.1538   -2.8908 N.pl3     1 <0>        -0.4970
     10 C7          1.5163   -6.5368   -2.4780 C.3       1 <0>         0.0759
     11 C8          2.4790   -7.1350   -3.5138 C.3       1 <0>         0.0494
     12 O1          1.8641   -7.0754   -4.8029 O.3       1 <0>        -0.3031
     13 C9          1.3246   -5.8902   -5.1930 C.ar      1 <0>         0.1099
     14 C10         0.9873   -4.9159   -4.2548 C.ar      1 <0>         0.0930
     15 C11         0.4283   -3.7160   -4.6642 C.ar      1 <0>        -0.0863
     16 C12         0.2009   -3.4852   -6.0095 C.ar      1 <0>        -0.0969
     17 C13         0.5315   -4.4506   -6.9432 C.ar      1 <0>        -0.0751
     18 C14         1.1001   -5.6488   -6.5396 C.ar      1 <0>        -0.1176
     19 Br1        -0.5628   -1.8492   -6.5718 Br        1 <0>        -0.0405
     20 C15         1.2183   -1.7261    1.2675 C.2       1 <0>         0.6253
     21 O2          1.6793   -2.1711    2.3028 O.2       1 <0>        -0.5315
     22 N3          0.7098   -0.4675    1.1882 N.am      1 <0>        -0.7179
     23 C16        -1.4397   -0.5127    0.0619 C.3       1 <0>        -0.1654
     24 H1          1.0039    1.9031    0.0027 H         1 <0>         0.0683
     25 H2         -0.5459    1.8868   -0.8726 H         1 <0>         0.0799
     26 H3         -0.5289    1.8773    0.9072 H         1 <0>         0.0703
     27 H4         -0.0556   -0.2851   -2.1311 H         1 <0>         0.1095
     28 H5          1.5659    0.0562   -1.4756 H         1 <0>         0.1002
     29 H6          1.9848   -6.5375   -1.4939 H         1 <0>         0.1091
     30 H7          0.5948   -7.1184   -2.4504 H         1 <0>         0.1040
     31 H8          3.4062   -6.5620   -3.5245 H         1 <0>         0.0781
     32 H9          2.6917   -8.1731   -3.2582 H         1 <0>         0.1353
     33 H10         0.1709   -2.9622   -3.9349 H         1 <0>         0.1807
     34 H11         0.3536   -4.2670   -7.9925 H         1 <0>         0.1428
     35 H12         1.3563   -6.3998   -7.2723 H         1 <0>         0.1480
     36 H13         0.8212    0.1363    1.9392 H         1 <0>         0.4078
     37 H14        -1.9910   -0.1446   -0.8033 H         1 <0>         0.0718
     38 H15        -1.4409   -1.6027    0.0566 H         1 <0>         0.0572
     39 H16        -1.9141   -0.1533    0.9750 H         1 <0>         0.0658
@<TRIPOS>BOND
     1    1    2 1
     2    1   24 1
     3    1   25 1
     4    1   26 1
     5    2   22 1
     6    2    3 1
     7    2   23 1
     8    3    4 1
     9    3   27 1
    10    3   28 1
    11    4    8 1
    12    4    5 2
    13    5    6 1
    14    5   20 1
    15    6    7 1
    16    7    8 2
    17    7    9 1
    18    9   14 1
    19    9   10 1
    20   10   11 1
    21   10   29 1
    22   10   30 1
    23   11   12 1
    24   11   31 1
    25   11   32 1
    26   12   13 1
    27   13   18 ar
    28   13   14 ar
    29   14   15 ar
    30   15   16 ar
    31   15   33 1
    32   16   17 ar
    33   16   19 1
    34   17   18 ar
    35   17   34 1
    36   18   35 1
    37   20   21 2
    38   20   22 am
    39   22   36 1
    40   23   37 1
    41   23   38 1
    42   23   39 1
@<TRIPOS>MOLECULE
ZINC00274998
   30    32     0     0     0
SMALL
USER_CHARGES
2-morpholino-5,6-dihydro-4H-1,3-benzothiazol-7-one
@<TRIPOS>ATOM
      1 C1          6.2129   -0.5582    5.6151 C.3       1 <0>        -0.1172
      2 C2          6.1418   -0.3563    4.0989 C.3       1 <0>        -0.0514
      3 C3          4.7133   -0.6369    3.6493 C.2       1 <0>         0.1882
      4 C4          3.9319   -1.5241    4.4018 C.2       1 <0>        -0.3483
      5 S1          2.3952   -1.5123    3.5280 S.3       1 <0>         0.1299
      6 C5          2.8680   -0.4002    2.2767 C.2       1 <0>         0.2845
      7 N1          4.1221   -0.1137    2.6022 N.2       1 <0>        -0.5468
      8 N2          2.1251    0.0696    1.2174 N.pl3     1 <0>        -0.4215
      9 C6          0.7721   -0.5054    1.2266 C.3       1 <0>         0.0029
     10 C7          0.0021   -0.0041    0.0020 C.3       1 <0>         0.0668
     11 O1         -0.0173    1.4259    0.0099 O.3       1 <0>        -0.3776
     12 C8          1.2838    2.0194    0.0006 C.3       1 <0>         0.0618
     13 C9          2.0669    1.5386    1.2252 C.3       1 <0>         0.0224
     14 C10         4.3470   -2.1987    5.5432 C.2       1 <0>         0.4383
     15 O2          3.5977   -2.9387    6.1492 O.2       1 <0>        -0.4647
     16 C11         5.7761   -1.9717    6.0013 C.3       1 <0>        -0.1436
     17 H1          5.5590    0.1644    6.1035 H         1 <0>         0.0726
     18 H2          7.2377   -0.3964    5.9493 H         1 <0>         0.0905
     19 H3          6.8256   -1.0455    3.6034 H         1 <0>         0.0987
     20 H4          6.4103    0.6708    3.8516 H         1 <0>         0.0968
     21 H5          0.2523   -0.1984    2.1342 H         1 <0>         0.0735
     22 H6          0.8379   -1.5929    1.1950 H         1 <0>         0.1047
     23 H7         -1.0197   -0.3821    0.0348 H         1 <0>         0.1150
     24 H8          0.4916   -0.3564   -0.9059 H         1 <0>         0.0701
     25 H9          1.8113    1.7259   -0.9069 H         1 <0>         0.0693
     26 H10         1.1891    3.1048    0.0324 H         1 <0>         0.1135
     27 H11         1.5678    1.8783    2.1328 H         1 <0>         0.0658
     28 H12         3.0785    1.9431    1.1930 H         1 <0>         0.1101
     29 H13         5.8301   -2.0777    6.9942 H         1 <0>         0.0908
     30 H14         6.4315   -2.6990    5.5223 H         1 <0>         0.1048
@<TRIPOS>BOND
     1    1   16 1
     2    1    2 1
     3    1   17 1
     4    1   18 1
     5    2    3 1
     6    2   19 1
     7    2   20 1
     8    3    7 1
     9    3    4 2
    10    4    5 1
    11    4   14 1
    12    5    6 1
    13    6    7 2
    14    6    8 1
    15    8   13 1
    16    8    9 1
    17    9   10 1
    18    9   21 1
    19    9   22 1
    20   10   11 1
    21   10   23 1
    22   10   24 1
    23   11   12 1
    24   12   13 1
    25   12   25 1
    26   12   26 1
    27   13   27 1
    28   13   28 1
    29   14   15 2
    30   14   16 1
    31   16   29 1
    32   16   30 1
@<TRIPOS>MOLECULE
ZINC00229432
   36    38     0     0     0
SMALL
USER_CHARGES
5,5-dimethyl-2-morpholino-4,6-dihydrobenzothiazol-7-one
@<TRIPOS>ATOM
      1 C1          6.6681   -2.8015    3.8971 C.3       1 <0>        -0.1524
      2 C2          6.6524   -1.6011    4.8456 C.3       1 <0>        -0.0598
      3 C3          6.1473   -0.3693    4.0893 C.3       1 <0>        -0.0417
      4 C4          4.7137   -0.6379    3.6486 C.2       1 <0>         0.1921
      5 C5          3.9307   -1.5212    4.4039 C.2       1 <0>        -0.3467
      6 S1          2.3952   -1.5123    3.5280 S.3       1 <0>         0.1286
      7 C6          2.8680   -0.4002    2.2767 C.2       1 <0>         0.2842
      8 N1          4.1221   -0.1137    2.6022 N.2       1 <0>        -0.5456
      9 N2          2.1251    0.0696    1.2174 N.pl3     1 <0>        -0.4214
     10 C7          0.7721   -0.5054    1.2266 C.3       1 <0>         0.0031
     11 C8          0.0021   -0.0041    0.0020 C.3       1 <0>         0.0668
     12 O1         -0.0173    1.4259    0.0099 O.3       1 <0>        -0.3776
     13 C9          1.2838    2.0194    0.0006 C.3       1 <0>         0.0618
     14 C10         2.0669    1.5386    1.2252 C.3       1 <0>         0.0225
     15 C11         4.3424   -2.1877    5.5512 C.2       1 <0>         0.4415
     16 O2          3.6042   -2.9541    6.1378 O.2       1 <0>        -0.4645
     17 C12         5.7533   -1.9177    6.0412 C.3       1 <0>        -0.1345
     18 C13         8.0745   -1.3363    5.3441 C.3       1 <0>        -0.1423
     19 H1          7.3293   -2.5916    3.0563 H         1 <0>         0.0638
     20 H2          7.0271   -3.6815    4.4307 H         1 <0>         0.0631
     21 H3          5.6591   -2.9865    3.5285 H         1 <0>         0.0547
     22 H4          6.7738   -0.1918    3.2152 H         1 <0>         0.0974
     23 H5          6.1737    0.5012    4.7447 H         1 <0>         0.0984
     24 H6          0.2523   -0.1984    2.1342 H         1 <0>         0.0735
     25 H7          0.8386   -1.5929    1.1946 H         1 <0>         0.1045
     26 H8         -1.0197   -0.3821    0.0348 H         1 <0>         0.1149
     27 H9          0.4916   -0.3564   -0.9059 H         1 <0>         0.0700
     28 H10         1.8113    1.7259   -0.9069 H         1 <0>         0.0692
     29 H11         1.1891    3.1048    0.0324 H         1 <0>         0.1134
     30 H12         1.5678    1.8783    2.1328 H         1 <0>         0.0657
     31 H13         3.0785    1.9431    1.1930 H         1 <0>         0.1100
     32 H14         6.1027   -2.7252    6.5164 H         1 <0>         0.0920
     33 H15         5.7452   -1.0690    6.7251 H         1 <0>         0.1046
     34 H16         8.0712   -0.4736    6.0103 H         1 <0>         0.0621
     35 H17         8.4391   -2.2105    5.8835 H         1 <0>         0.0643
     36 H18         8.7262   -1.1362    4.4936 H         1 <0>         0.0643
@<TRIPOS>BOND
     1    1    2 1
     2    1   19 1
     3    1   20 1
     4    1   21 1
     5    2   17 1
     6    2    3 1
     7    2   18 1
     8    3    4 1
     9    3   22 1
    10    3   23 1
    11    4    8 1
    12    4    5 2
    13    5    6 1
    14    5   15 1
    15    6    7 1
    16    7    8 2
    17    7    9 1
    18    9   14 1
    19    9   10 1
    20   10   11 1
    21   10   24 1
    22   10   25 1
    23   11   12 1
    24   11   26 1
    25   11   27 1
    26   12   13 1
    27   13   14 1
    28   13   28 1
    29   13   29 1
    30   14   30 1
    31   14   31 1
    32   15   16 2
    33   15   17 1
    34   17   32 1
    35   17   33 1
    36   18   34 1
    37   18   35 1
    38   18   36 1
@<TRIPOS>MOLECULE
ZINC03869685
   32    34     0     0     0
SMALL
USER_CHARGES

@<TRIPOS>ATOM
      1 C1          0.9741   -0.2755   -0.9644 C.ar      1 <0>        -0.0748
      2 C2          2.1569    0.4329   -0.9701 C.ar      1 <0>        -0.1346
      3 C3          2.3856    1.4156   -0.0177 C.ar      1 <0>         0.1032
      4 C4          1.4203    1.6918    0.9495 C.ar      1 <0>         0.0788
      5 C5          0.2328    0.9863    0.9617 C.ar      1 <0>        -0.0762
      6 C6          0.0021   -0.0041    0.0020 C.ar      1 <0>        -0.0447
      7 C7         -1.2637   -0.7605    0.0100 C.2       1 <0>         0.1350
      8 C8         -2.4363   -0.0759    0.1235 C.2       1 <0>        -0.0429
      9 C9         -3.6628   -0.7894    0.1327 C.2       1 <0>         0.4011
     10 O1         -4.7327   -0.2102    0.2323 O.2       1 <0>        -0.4484
     11 C10        -3.5946   -2.2549    0.0170 C.ar      1 <0>        -0.2690
     12 C11        -4.7561   -3.0387    0.0170 C.ar      1 <0>         0.2244
     13 C12        -4.6504   -4.4123   -0.0941 C.ar      1 <0>        -0.2081
     14 C13        -3.3994   -5.0103   -0.2044 C.ar      1 <0>         0.2000
     15 C14        -2.2463   -4.2416   -0.2047 C.ar      1 <0>        -0.1854
     16 C15        -2.3316   -2.8618   -0.0952 C.ar      1 <0>         0.1876
     17 O2         -1.2182   -2.0992   -0.1003 O.3       1 <0>        -0.1970
     18 O3         -3.3070   -6.3605   -0.3125 O.3       1 <0>        -0.4866
     19 O4         -5.9758   -2.4535    0.1257 O.3       1 <0>        -0.4726
     20 O5         -2.4312    1.2810    0.2275 O.3       1 <0>        -0.4502
     21 O6          1.6480    2.6557    1.8815 O.3       1 <0>        -0.4836
     22 O7          3.5534    2.1101   -0.0273 O.3       1 <0>        -0.4861
     23 H1          0.7971   -1.0371   -1.7094 H         1 <0>         0.1379
     24 H2          2.9075    0.2221   -1.7176 H         1 <0>         0.1421
     25 H3         -0.5155    1.1988    1.7108 H         1 <0>         0.1429
     26 H4         -5.5413   -5.0229   -0.0948 H         1 <0>         0.1515
     27 H5         -1.2805   -4.7174   -0.2903 H         1 <0>         0.1559
     28 H6         -3.3257   -6.6843   -1.2235 H         1 <0>         0.4050
     29 H7         -6.3751   -2.2160   -0.7224 H         1 <0>         0.4036
     30 H8         -3.3120    1.6729    0.3033 H         1 <0>         0.4079
     31 H9          1.3508    3.5370    1.6166 H         1 <0>         0.3905
     32 H10         3.5287    2.9137   -0.5647 H         1 <0>         0.3924
@<TRIPOS>BOND
     1    1    6 ar
     2    1    2 ar
     3    1   23 1
     4    2    3 ar
     5    2   24 1
     6    3    4 ar
     7    3   22 1
     8    4    5 ar
     9    4   21 1
    10    5    6 ar
    11    5   25 1
    12    6    7 1
    13    7   17 1
    14    7    8 2
    15    8    9 1
    16    8   20 1
    17    9   10 2
    18    9   11 1
    19   11   16 ar
    20   11   12 ar
    21   12   13 ar
    22   12   19 1
    23   13   14 ar
    24   13   26 1
    25   14   15 ar
    26   14   18 1
    27   15   16 ar
    28   15   27 1
    29   16   17 1
    30   18   28 1
    31   19   29 1
    32   20   30 1
    33   21   31 1
    34   22   32 1
@<TRIPOS>MOLECULE
ZINC03869685
   31    33     0     0     0
SMALL
USER_CHARGES

@<TRIPOS>ATOM
      1 C1          0.1390    1.1246   -0.8120 C.ar      1 <0>        -0.0626
      2 C2          1.3229    1.8301   -0.8179 C.ar      1 <0>        -0.1333
      3 C3          2.3812    1.4233   -0.0172 C.ar      1 <0>         0.0878
      4 C4          2.2522    0.2984    0.7970 C.ar      1 <0>         0.0757
      5 C5          1.0694   -0.4139    0.8086 C.ar      1 <0>        -0.0997
      6 C6          0.0021   -0.0041    0.0020 C.ar      1 <0>        -0.0194
      7 C7         -1.2620   -0.7597    0.0100 C.2       1 <0>         0.1007
      8 C8         -2.4587   -0.0763    0.1245 C.2       1 <0>        -0.0038
      9 C9         -3.6655   -0.7872    0.1324 C.2       1 <0>         0.3349
     10 C10        -3.6167   -2.1939    0.0219 C.2       1 <0>        -0.3331
     11 C11        -4.8018   -2.9593    0.0240 C.2       1 <0>         0.2664
     12 C12        -4.7326   -4.3182   -0.0844 C.2       1 <0>        -0.3749
     13 C13        -3.4871   -4.9570   -0.1979 C.2       1 <0>         0.3648
     14 O1         -3.4307   -6.2860   -0.3033 O.2       1 <0>        -0.6598
     15 C14        -2.3054   -4.2086   -0.2016 C.2       1 <0>        -0.3143
     16 C15        -2.3616   -2.8325   -0.0921 C.2       1 <0>         0.2118
     17 O2         -1.2290   -2.0988   -0.0996 O.3       1 <0>        -0.2018
     18 O3         -6.0073   -2.3463    0.1339 O.3       1 <0>        -0.4482
     19 O4         -4.8484   -0.1420    0.2437 O.3       1 <0>        -0.5747
     20 O5         -2.4638    1.2803    0.2294 O.3       1 <0>        -0.4649
     21 O6          3.2919   -0.0973    1.5794 O.3       1 <0>        -0.4856
     22 O7          3.5458    2.1225   -0.0269 O.3       1 <0>        -0.4881
     23 H1         -0.6843    1.4460   -1.4327 H         1 <0>         0.1397
     24 H2          1.4276    2.7014   -1.4473 H         1 <0>         0.1381
     25 H3          0.9685   -1.2854    1.4384 H         1 <0>         0.1410
     26 H4         -5.6395   -4.9047   -0.0825 H         1 <0>         0.1180
     27 H5         -1.3506   -4.7057   -0.2895 H         1 <0>         0.1230
     28 H6         -6.7597   -2.9537    0.1258 H         1 <0>         0.3847
     29 H7         -3.3475    1.6656    0.3047 H         1 <0>         0.4058
     30 H8          3.2925    0.2977    2.4620 H         1 <0>         0.3855
     31 H9          3.5825    2.8346    0.6263 H         1 <0>         0.3863
@<TRIPOS>BOND
     1    1    6 ar
     2    1    2 ar
     3    1   23 1
     4    2    3 ar
     5    2   24 1
     6    3    4 ar
     7    3   22 1
     8    4    5 ar
     9    4   21 1
    10    5    6 ar
    11    5   25 1
    12    6    7 1
    13    7   17 1
    14    7    8 2
    15    8    9 1
    16    8   20 1
    17    9   10 2
    18    9   19 1
    19   10   16 1
    20   10   11 1
    21   11   12 2
    22   11   18 1
    23   12   13 1
    24   12   26 1
    25   13   14 2
    26   13   15 1
    27   15   16 2
    28   15   27 1
    29   16   17 1
    30   18   28 1
    31   20   29 1
    32   21   30 1
    33   22   31 1
@<TRIPOS>MOLECULE
ZINC27646798
   37    40     0     0     0
SMALL
USER_CHARGES
3-(4-morpholinothieno[3,2-d]pyrimidin-2-yl)phenol
@<TRIPOS>ATOM
      1 C1         -1.2199    1.7485    0.0173 C.ar      1 <0>        -0.0892
      2 C2         -1.2454    3.1288    0.0298 C.ar      1 <0>        -0.1126
      3 C3         -0.0514    3.8476    0.0223 C.ar      1 <0>        -0.0081
      4 C4          1.1652    3.1691    0.0075 C.ar      1 <0>        -0.1131
      5 C5          1.1814    1.7842    0.0004 C.ar      1 <0>         0.1468
      6 C6         -0.0126    1.0758    0.0080 C.ar      1 <0>        -0.1927
      7 O1          2.3662    1.1187   -0.0145 O.3       1 <0>        -0.5085
      8 C7         -0.0760    5.3307    0.0295 C.ar      1 <0>         0.3925
      9 N1          1.0716    5.9741    0.0216 N.ar      1 <0>        -0.5030
     10 C8          1.1211    7.3278    0.0275 C.ar      1 <0>         0.1897
     11 C9          2.2454    8.1729    0.0212 C.2       1 <0>        -0.1560
     12 C10         2.0874    9.5099    0.0298 C.2       1 <0>        -0.1082
     13 S1          0.3128    9.7024    0.0473 S.3       1 <0>         0.0987
     14 C11        -0.1289    7.9855    0.0425 C.ar      1 <0>        -0.2646
     15 C12        -1.3162    7.2724    0.0507 C.ar      1 <0>         0.4224
     16 N2         -1.2564    5.9419    0.0383 N.ar      1 <0>        -0.5299
     17 N3         -2.5370    7.9274    0.0650 N.pl3     1 <0>        -0.4689
     18 C13        -2.6310    8.8416    1.2125 C.3       1 <0>         0.0169
     19 C14        -3.9673    9.5866    1.1565 C.3       1 <0>         0.0634
     20 O2         -5.0362    8.6368    1.1320 O.3       1 <0>        -0.3790
     21 C15        -4.9762    7.7309    0.0269 C.3       1 <0>         0.0577
     22 C16        -3.6502    6.9671    0.0715 C.3       1 <0>         0.0252
     23 H1         -2.1460    1.1927    0.0191 H         1 <0>         0.1309
     24 H2         -2.1904    3.6515    0.0409 H         1 <0>         0.1364
     25 H3          2.0932    3.7215    0.0012 H         1 <0>         0.1426
     26 H4          0.0021   -0.0041    0.0020 H         1 <0>         0.1300
     27 H5          2.3792    0.0188   -0.0201 H         1 <0>         0.4347
     28 H6          3.2383    7.7480    0.0097 H         1 <0>         0.1535
     29 H7          2.8474   10.2773    0.0272 H         1 <0>         0.2047
     30 H8         -2.5696    8.2646    2.1470 H         1 <0>         0.0647
     31 H9         -1.8036    9.5654    1.1735 H         1 <0>         0.0973
     32 H10        -4.0660   10.2298    2.0434 H         1 <0>         0.1117
     33 H11        -4.0039   10.2062    0.2484 H         1 <0>         0.0678
     34 H12        -5.8133    7.0201    0.0897 H         1 <0>         0.1102
     35 H13        -5.0447    8.2958   -0.9145 H         1 <0>         0.0643
     36 H14        -3.5732    6.3106   -0.8077 H         1 <0>         0.1032
     37 H15        -3.6053    6.3598    0.9876 H         1 <0>         0.0685
@<TRIPOS>BOND
     1    1    6 ar
     2    1    2 ar
     3    1   23 1
     4    2    3 ar
     5    2   24 1
     6    3    4 ar
     7    3    8 1
     8    4    5 ar
     9    4   25 1
    10    5    6 ar
    11    5    7 1
    12    6   26 1
    13    7   27 1
    14    8   16 ar
    15    8    9 ar
    16    9   10 ar
    17   10   14 ar
    18   10   11 1
    19   11   12 2
    20   11   28 1
    21   12   13 1
    22   12   29 1
    23   13   14 1
    24   14   15 ar
    25   15   16 ar
    26   15   17 1
    27   17   22 1
    28   17   18 1
    29   18   19 1
    30   18   30 1
    31   18   31 1
    32   19   20 1
    33   19   32 1
    34   19   33 1
    35   20   21 1
    36   21   22 1
    37   21   34 1
    38   21   35 1
    39   22   36 1
    40   22   37 1
@<TRIPOS>MOLECULE
ZINC40879935
   49    53     0     0     0
SMALL
USER_CHARGES

@<TRIPOS>ATOM
      1 C1          1.9364   -1.5246    3.5039 C.3       1 <0>        -0.1581
      2 C2          2.0142   -1.6935    1.9852 C.3       1 <0>         0.1716
      3 C3          1.4604   -3.0676    1.6173 C.3       1 <0>        -0.0517
      4 C4          1.2787   -3.1381    0.1099 C.2       1 <0>         0.1844
      5 C5          0.9991   -1.9508   -0.5720 C.2       1 <0>        -0.3617
      6 S1          0.8742   -2.4916   -2.2446 S.3       1 <0>         0.2307
      7 C6          1.1742   -4.1291   -1.9692 C.2       1 <0>         0.3047
      8 N1          1.3522   -4.1976   -0.6585 N.2       1 <0>        -0.5753
      9 N2          1.2221   -5.1538   -2.8908 N.pl3     1 <0>        -0.4968
     10 C7          0.8753   -4.9246   -4.3038 C.3       1 <0>         0.0757
     11 C8          0.0303   -6.1175   -4.7731 C.3       1 <0>         0.0510
     12 O1          0.7859   -7.3172   -4.5910 O.3       1 <0>        -0.3075
     13 C9          1.3724   -7.5191   -3.3810 C.ar      1 <0>         0.0844
     14 C10         1.6091   -6.4510   -2.5156 C.ar      1 <0>         0.0969
     15 C11         2.2158   -6.6646   -1.2903 C.ar      1 <0>        -0.1085
     16 C12         2.5952   -7.9534   -0.9210 C.ar      1 <0>         0.0033
     17 C13         2.3615   -9.0189   -1.7870 C.ar      1 <0>        -0.1075
     18 C14         1.7450   -8.8021   -3.0073 C.ar      1 <0>        -0.1138
     19 C15         3.2475   -8.1902    0.3919 C.2       1 <0>        -0.1957
     20 C16         3.5390   -7.2141    1.3643 C.2       1 <0>         0.0678
     21 N3          4.1110   -7.8086    2.3779 N.2       1 <0>        -0.2939
     22 N4          4.2065   -9.1766    2.0951 N.pl3     1 <0>        -0.3720
     23 C17         3.6677   -9.3937    0.8777 C.2       1 <0>         0.0702
     24 C18         4.7857  -10.1968    2.9725 C.3       1 <0>         0.0990
     25 C19         0.8705   -0.6634    0.0677 C.2       1 <0>         0.6255
     26 O2          0.4050    0.3008   -0.5119 O.2       1 <0>        -0.5330
     27 N5          1.2993   -0.5909    1.3561 N.am      1 <0>        -0.7186
     28 C20         3.4829   -1.6306    1.5610 C.3       1 <0>        -0.1656
     29 H1          0.8925   -1.5330    3.8174 H         1 <0>         0.0679
     30 H2          2.4679   -2.3438    3.9883 H         1 <0>         0.0799
     31 H3          2.3935   -0.5767    3.7879 H         1 <0>         0.0699
     32 H4          2.1593   -3.8404    1.9373 H         1 <0>         0.1076
     33 H5          0.4988   -3.2170    2.1083 H         1 <0>         0.0994
     34 H6          0.3000   -4.0036   -4.3988 H         1 <0>         0.1065
     35 H7          1.7842   -4.8572   -4.9016 H         1 <0>         0.1019
     36 H8         -0.8860   -6.1700   -4.1850 H         1 <0>         0.0748
     37 H9         -0.2167   -5.9978   -5.8280 H         1 <0>         0.1314
     38 H10         2.3950   -5.8349   -0.6226 H         1 <0>         0.1661
     39 H11         2.6539  -10.0187   -1.5019 H         1 <0>         0.1291
     40 H12         1.5655   -9.6310   -3.6760 H         1 <0>         0.1383
     41 H13         3.3269   -6.1581    1.2860 H         1 <0>         0.1838
     42 H14         3.5859  -10.3472    0.3773 H         1 <0>         0.1777
     43 H15         4.0084  -10.6032    3.6196 H         1 <0>         0.0772
     44 H16         5.2103  -10.9978    2.3675 H         1 <0>         0.0892
     45 H17         5.5692   -9.7484    3.5833 H         1 <0>         0.0914
     46 H18         1.1247    0.2139    1.8686 H         1 <0>         0.4072
     47 H19         4.0374   -2.4303    2.0520 H         1 <0>         0.0718
     48 H20         3.5542   -1.7496    0.4799 H         1 <0>         0.0578
     49 H21         3.9033   -0.6670    1.8490 H         1 <0>         0.0653
@<TRIPOS>BOND
     1    1    2 1
     2    1   29 1
     3    1   30 1
     4    1   31 1
     5    2   27 1
     6    2    3 1
     7    2   28 1
     8    3    4 1
     9    3   32 1
    10    3   33 1
    11    4    8 1
    12    4    5 2
    13    5    6 1
    14    5   25 1
    15    6    7 1
    16    7    8 2
    17    7    9 1
    18    9   14 1
    19    9   10 1
    20   10   11 1
    21   10   34 1
    22   10   35 1
    23   11   12 1
    24   11   36 1
    25   11   37 1
    26   12   13 1
    27   13   18 ar
    28   13   14 ar
    29   14   15 ar
    30   15   16 ar
    31   15   38 1
    32   16   17 ar
    33   16   19 1
    34   17   18 ar
    35   17   39 1
    36   18   40 1
    37   19   23 2
    38   19   20 1
    39   20   21 2
    40   20   41 1
    41   21   22 1
    42   22   23 1
    43   22   24 1
    44   23   42 1
    45   24   43 1
    46   24   44 1
    47   24   45 1
    48   25   26 2
    49   25   27 am
    50   27   46 1
    51   28   47 1
    52   28   48 1
    53   28   49 1
@<TRIPOS>MOLECULE
ZINC16052714
   62    67     0     0     0
SMALL
USER_CHARGES

@<TRIPOS>ATOM
      1 C1         -1.2179    0.3618   -0.7929 C.3       1 <0>        -0.6727
      2 S1         -0.8608   -1.4165   -0.7657 S.o2      1 <0>         2.6086
      3 O1         -0.0554   -1.7368    0.3604 O.2       1 <0>        -0.9532
      4 O2         -2.0406   -2.1570   -1.0467 O.2       1 <0>        -0.9539
      5 N1          0.1211   -1.6734   -2.0742 N.pl3     1 <0>        -1.0033
      6 C2         -0.4464   -1.9994   -3.3914 C.3       1 <0>         0.1224
      7 C3          0.2528   -3.2539   -3.9258 C.3       1 <0>         0.0451
      8 N2          1.7067   -3.0443   -3.9105 N.3       1 <0>        -0.5316
      9 C4          2.2031   -2.8527   -2.5412 C.3       1 <0>         0.0371
     10 C5          1.5835   -1.5758   -1.9515 C.3       1 <0>         0.1234
     11 C6          2.4055   -4.1534   -4.5734 C.3       1 <0>         0.1300
     12 C7          3.8574   -3.7940   -4.7575 C.2       1 <0>        -0.0864
     13 C8          4.8850   -4.0220   -3.9198 C.2       1 <0>        -0.1471
     14 C9          6.2159   -3.5887   -4.2968 C.ar      1 <0>         0.2076
     15 C10         6.2960   -2.9484   -5.5522 C.ar      1 <0>        -0.3029
     16 S2          4.6250   -2.9718   -6.1413 S.3       1 <0>         0.1024
     17 C11         7.5058   -2.4811   -6.0423 C.ar      1 <0>         0.5055
     18 N3          8.5981   -2.6496   -5.2999 N.ar      1 <0>        -0.5559
     19 C12         8.5129   -3.2543   -4.1181 C.ar      1 <0>         0.4114
     20 N4          7.3823   -3.7111   -3.6207 N.ar      1 <0>        -0.5253
     21 C13         9.7506   -3.4228   -3.3231 C.ar      1 <0>         0.0278
     22 C14        10.9622   -2.9521   -3.8074 C.ar      1 <0>        -0.1016
     23 C15        12.1227   -3.1090   -3.0655 C.ar      1 <0>        -0.0792
     24 C16        12.0948   -3.7329   -1.8377 C.ar      1 <0>        -0.1198
     25 C17        10.8933   -4.2156   -1.3259 C.ar      1 <0>         0.1177
     26 C18         9.7061   -4.0584   -2.0641 C.ar      1 <0>        -0.1364
     27 C19         8.6656   -4.6312   -1.2987 C.2       1 <0>         0.0923
     28 N5          9.1685   -5.0916   -0.1893 N.2       1 <0>        -0.2546
     29 N6         10.5502   -4.8651   -0.1671 N.pl3     1 <0>        -0.5083
     30 H1         11.1568   -5.1130    0.5481 H         1 <0>         0.4418
     31 N7          7.5766   -1.8539   -7.2757 N.pl3     1 <0>        -0.5948
     32 C20         6.3563   -1.5252   -8.0294 C.3       1 <0>         0.0878
     33 C21         6.4273   -0.0515   -8.4456 C.3       1 <0>         0.0500
     34 O3          7.6692    0.1903   -9.1113 O.3       1 <0>        -0.3752
     35 C22         8.8226   -0.0241   -8.2943 C.3       1 <0>         0.0453
     36 C23         8.8740   -1.4913   -7.8678 C.3       1 <0>         0.0863
     37 H2         -0.2856    0.9209   -0.7133 H         1 <0>         0.1276
     38 H3         -1.7166    0.6180   -1.7276 H         1 <0>         0.1278
     39 H4         -1.8661    0.6151    0.0461 H         1 <0>         0.1284
     40 H5         -1.5151   -2.1898   -3.2927 H         1 <0>         0.1007
     41 H6         -0.2815   -1.1682   -4.0770 H         1 <0>         0.0790
     42 H7          0.0016   -4.1068   -3.2953 H         1 <0>         0.0472
     43 H8         -0.0762   -3.4465   -4.9469 H         1 <0>         0.0927
     44 H9          1.9247   -3.7112   -1.9300 H         1 <0>         0.0475
     45 H10         3.2885   -2.7545   -2.5582 H         1 <0>         0.0918
     46 H11         1.9397   -0.7046   -2.5013 H         1 <0>         0.0780
     47 H12         1.8575   -1.4860   -0.9003 H         1 <0>         0.0997
     48 H13         2.3283   -5.0505   -3.9590 H         1 <0>         0.0677
     49 H14         1.9510   -4.3394   -5.5465 H         1 <0>         0.1006
     50 H15         4.7202   -4.5219   -2.9767 H         1 <0>         0.1479
     51 H16        11.0018   -2.4609   -4.7683 H         1 <0>         0.1410
     52 H17        13.0593   -2.7381   -3.4547 H         1 <0>         0.1377
     53 H18        13.0070   -3.8483   -1.2711 H         1 <0>         0.1302
     54 H19         7.6256   -4.6789   -1.5860 H         1 <0>         0.2037
     55 H20         6.2923   -2.1546   -8.9170 H         1 <0>         0.0878
     56 H21         5.4812   -1.6871   -7.4000 H         1 <0>         0.0911
     57 H22         5.6022    0.1764   -9.1203 H         1 <0>         0.1135
     58 H23         6.3598    0.5805   -7.5601 H         1 <0>         0.0595
     59 H24         9.7207    0.2235   -8.8601 H         1 <0>         0.1116
     60 H25         8.7638    0.6080   -7.4083 H         1 <0>         0.0581
     61 H26         9.6654   -1.6309   -7.1314 H         1 <0>         0.1107
     62 H27         9.0678   -2.1173   -8.7388 H         1 <0>         0.0783
@<TRIPOS>BOND
     1    1    2 1
     2    1   37 1
     3    1   38 1
     4    1   39 1
     5    2    3 2
     6    2    4 2
     7    2    5 1
     8    5   10 1
     9    5    6 1
    10    6    7 1
    11    6   40 1
    12    6   41 1
    13    7    8 1
    14    7   42 1
    15    7   43 1
    16    8    9 1
    17    8   11 1
    18    9   10 1
    19    9   44 1
    20    9   45 1
    21   10   46 1
    22   10   47 1
    23   11   12 1
    24   11   48 1
    25   11   49 1
    26   12   16 1
    27   12   13 2
    28   13   14 1
    29   13   50 1
    30   14   20 ar
    31   14   15 ar
    32   15   16 1
    33   15   17 ar
    34   17   18 ar
    35   17   31 1
    36   18   19 ar
    37   19   20 ar
    38   19   21 1
    39   21   26 ar
    40   21   22 ar
    41   22   23 ar
    42   22   51 1
    43   23   24 ar
    44   23   52 1
    45   24   25 ar
    46   24   53 1
    47   25   29 1
    48   25   26 ar
    49   26   27 1
    50   27   28 2
    51   27   54 1
    52   28   29 1
    53   29   30 1
    54   31   36 1
    55   31   32 1
    56   32   33 1
    57   32   55 1
    58   32   56 1
    59   33   34 1
    60   33   57 1
    61   33   58 1
    62   34   35 1
    63   35   36 1
    64   35   59 1
    65   35   60 1
    66   36   61 1
    67   36   62 1
@<TRIPOS>MOLECULE
ZINC16052714
   63    68     0     0     0
SMALL
USER_CHARGES

@<TRIPOS>ATOM
      1 C1         -1.2288    0.3975   -0.8157 C.3       1 <0>        -0.6666
      2 S1         -0.8705   -1.3801   -0.7668 S.o2      1 <0>         2.6057
      3 O1         -0.0610   -1.6854    0.3604 O.2       1 <0>        -0.9385
      4 O2         -2.0509   -2.1248   -1.0340 O.2       1 <0>        -0.9391
      5 N1          0.1069   -1.6534   -2.0754 N.pl3     1 <0>        -1.0167
      6 C2         -0.4638   -1.9967   -3.3871 C.3       1 <0>         0.0929
      7 C3          0.2495   -3.2458   -3.9152 C.3       1 <0>        -0.0180
      8 N2          1.6991   -3.0122   -3.9273 N.4       1 <0>        -0.3841
      9 C4          2.1876   -2.8289   -2.5547 C.3       1 <0>        -0.0264
     10 C5          1.5701   -1.5537   -1.9606 C.3       1 <0>         0.0955
     11 C6          2.3742   -4.1665   -4.5353 C.3       1 <0>         0.0906
     12 C7          3.8480   -3.8777   -4.6608 C.2       1 <0>        -0.2191
     13 C8          4.8258   -4.1336   -3.7730 C.2       1 <0>        -0.0705
     14 C9          6.1908   -3.7698   -4.0981 C.ar      1 <0>         0.1897
     15 C10         6.3561   -3.1619   -5.3612 C.ar      1 <0>        -0.2890
     16 S2          4.7135   -3.1223   -6.0247 S.3       1 <0>         0.1250
     17 C11         7.6068   -2.7612   -5.8054 C.ar      1 <0>         0.5074
     18 N3          8.6561   -2.9627   -5.0111 N.ar      1 <0>        -0.5423
     19 C12         8.4906   -3.5364   -3.8224 C.ar      1 <0>         0.4316
     20 N4          7.3192   -3.9301   -3.3675 N.ar      1 <0>        -0.5198
     21 C13         9.6828   -3.7434   -2.9689 C.ar      1 <0>         0.0088
     22 C14        10.9352   -3.3393   -3.4073 C.ar      1 <0>        -0.0901
     23 C15        12.0531   -3.5322   -2.6106 C.ar      1 <0>        -0.0812
     24 C16        11.9420   -4.1268   -1.3730 C.ar      1 <0>        -0.1070
     25 C17        10.6979   -4.5428   -0.9064 C.ar      1 <0>         0.1172
     26 C18         9.5531   -4.3482   -1.7007 C.ar      1 <0>        -0.1343
     27 C19         8.4542   -4.8558   -0.9717 C.2       1 <0>         0.0841
     28 N5          8.8856   -5.3138    0.1684 N.2       1 <0>        -0.2483
     29 N6         10.2740   -5.1500    0.2485 N.pl3     1 <0>        -0.5025
     30 H1         10.8361   -5.4093    0.9953 H         1 <0>         0.4451
     31 N7          7.7612   -2.1655   -7.0467 N.pl3     1 <0>        -0.5896
     32 C20         6.5921   -1.7984   -7.8614 C.3       1 <0>         0.0915
     33 C21         6.7499   -0.3391   -8.3036 C.3       1 <0>         0.0496
     34 O3          8.0299   -0.1690   -8.9171 O.3       1 <0>        -0.3699
     35 C22         9.1348   -0.4174   -8.0446 C.3       1 <0>         0.0446
     36 C23         9.0990   -1.8756   -7.5867 C.3       1 <0>         0.0824
     37 H2         -0.2965    0.9581   -0.7467 H         1 <0>         0.1315
     38 H3         -1.7309    0.6413   -1.7519 H         1 <0>         0.1318
     39 H4         -1.8742    0.6613    0.0221 H         1 <0>         0.1388
     40 H5         -1.5292   -2.2006   -3.2810 H         1 <0>         0.1421
     41 H6         -0.3136   -1.1687   -4.0800 H         1 <0>         0.0993
     42 H7          0.0234   -4.0939   -3.2689 H         1 <0>         0.1407
     43 H8         -0.0927   -3.4589   -4.9279 H         1 <0>         0.1486
     44 H9          1.9028   -3.6897   -1.9496 H         1 <0>         0.1416
     45 H10         3.2735   -2.7349   -2.5649 H         1 <0>         0.1425
     46 H11         1.9222   -0.6817   -2.5118 H         1 <0>         0.0986
     47 H12         1.8499   -1.4646   -0.9109 H         1 <0>         0.1411
     48 H13         2.2283   -5.0452   -3.9071 H         1 <0>         0.1533
     49 H14         1.9551   -4.3531   -5.5241 H         1 <0>         0.1519
     50 H15         4.5964   -4.6044   -2.8284 H         1 <0>         0.1590
     51 H16        11.0401   -2.8718   -4.3752 H         1 <0>         0.1422
     52 H17        13.0223   -3.2131   -2.9644 H         1 <0>         0.1420
     53 H18        12.8219   -4.2709   -0.7635 H         1 <0>         0.1349
     54 H19         7.4269   -4.8625   -1.3048 H         1 <0>         0.2003
     55 H20         6.5382   -2.4438   -8.7381 H         1 <0>         0.0941
     56 H21         5.6834   -1.9063   -7.2691 H         1 <0>         0.0802
     57 H22         5.9669   -0.0889   -9.0194 H         1 <0>         0.1156
     58 H23         6.6727    0.3149   -7.4350 H         1 <0>         0.0597
     59 H24        10.0676   -0.2236   -8.5741 H         1 <0>         0.1177
     60 H25         9.0663    0.2363   -7.1751 H         1 <0>         0.0604
     61 H26         9.8497   -2.0346   -6.8126 H         1 <0>         0.1144
     62 H27         9.3019   -2.5290   -8.4352 H         1 <0>         0.0852
     63 H28         1.9007   -2.1845   -4.4680 H         1 <0>         0.4244
@<TRIPOS>BOND
     1    1    2 1
     2    1   37 1
     3    1   38 1
     4    1   39 1
     5    2    3 2
     6    2    4 2
     7    2    5 1
     8    5   10 1
     9    5    6 1
    10    6    7 1
    11    6   40 1
    12    6   41 1
    13    7    8 1
    14    7   42 1
    15    7   43 1
    16    8    9 1
    17    8   11 1
    18    8   63 1
    19    9   10 1
    20    9   44 1
    21    9   45 1
    22   10   46 1
    23   10   47 1
    24   11   12 1
    25   11   48 1
    26   11   49 1
    27   12   16 1
    28   12   13 2
    29   13   14 1
    30   13   50 1
    31   14   20 ar
    32   14   15 ar
    33   15   16 1
    34   15   17 ar
    35   17   18 ar
    36   17   31 1
    37   18   19 ar
    38   19   20 ar
    39   19   21 1
    40   21   26 ar
    41   21   22 ar
    42   22   23 ar
    43   22   51 1
    44   23   24 ar
    45   23   52 1
    46   24   25 ar
    47   24   53 1
    48   25   29 1
    49   25   26 ar
    50   26   27 1
    51   27   28 2
    52   27   54 1
    53   28   29 1
    54   29   30 1
    55   31   36 1
    56   31   32 1
    57   32   33 1
    58   32   55 1
    59   32   56 1
    60   33   34 1
    61   33   57 1
    62   33   58 1
    63   34   35 1
    64   35   36 1
    65   35   59 1
    66   35   60 1
    67   36   61 1
    68   36   62 1
@<TRIPOS>MOLECULE
ZINC19862659
   58    62     0     0     0
SMALL
USER_CHARGES
3-[6-[(4-methylpiperazin-1-yl)methyl]-4-morpholino-thieno[3,2-d]pyrimidin-2-yl]phenol
@<TRIPOS>ATOM
      1 C1          5.5066   11.8413   -4.9487 C.3       1 <0>        -0.0454
      2 N1          5.1826   11.4799   -3.5622 N.4       1 <0>        -0.4028
      3 C2          4.5196   12.5931   -2.8689 C.3       1 <0>         0.0000
      4 C3          4.2712   12.2061   -1.4092 C.3       1 <0>         0.0255
      5 N2          3.4444   10.9921   -1.3608 N.3       1 <0>        -0.5368
      6 C4          4.1075    9.8789   -2.0541 C.3       1 <0>         0.0166
      7 C5          4.3559   10.2659   -3.5138 C.3       1 <0>         0.0010
      8 C6          3.1205   10.6307    0.0257 C.3       1 <0>         0.1349
      9 C7          2.0810    9.5396    0.0306 C.2       1 <0>        -0.1074
     10 C8          2.2708    8.2077    0.0221 C.2       1 <0>        -0.1338
     11 C9          1.1187    7.3280    0.0284 C.ar      1 <0>         0.1838
     12 C10        -0.1290    7.9875    0.0434 C.ar      1 <0>        -0.2624
     13 S1          0.3055    9.7053    0.0480 S.3       1 <0>         0.1274
     14 C11        -1.3168    7.2728    0.0509 C.ar      1 <0>         0.4245
     15 N3         -1.2560    5.9426    0.0436 N.ar      1 <0>        -0.5248
     16 C12        -0.0760    5.3307    0.0295 C.ar      1 <0>         0.4016
     17 N4          1.0715    5.9749    0.0270 N.ar      1 <0>        -0.5070
     18 C13        -0.0514    3.8476    0.0223 C.ar      1 <0>        -0.0176
     19 C14        -1.2458    3.1286    0.0298 C.ar      1 <0>        -0.1099
     20 C15        -1.2203    1.7487    0.0173 C.ar      1 <0>        -0.0858
     21 C16        -0.0126    1.0758    0.0080 C.ar      1 <0>        -0.1353
     22 C17         1.1810    1.7840    0.0004 C.ar      1 <0>         0.1473
     23 C18         1.1648    3.1693    0.0075 C.ar      1 <0>        -0.1647
     24 O1          2.3659    1.1184   -0.0145 O.3       1 <0>        -0.5067
     25 N5         -2.5381    7.9269    0.0661 N.pl3     1 <0>        -0.4692
     26 C19        -2.6324    8.8400    1.2144 C.3       1 <0>         0.0179
     27 C20        -3.9693    9.5840    1.1594 C.3       1 <0>         0.0630
     28 O2         -5.0375    8.6334    1.1344 O.3       1 <0>        -0.3761
     29 C21        -4.9772    7.7285    0.0285 C.3       1 <0>         0.0571
     30 C22        -3.6505    6.9657    0.0721 C.3       1 <0>         0.0241
     31 H1          6.1246   12.7513   -4.9556 H         1 <0>         0.1256
     32 H2          4.5766   12.0254   -5.5065 H         1 <0>         0.1202
     33 H3          6.0612   11.0178   -5.4222 H         1 <0>         0.1250
     34 H4          5.1626   13.4847   -2.9085 H         1 <0>         0.1390
     35 H5          3.5597   12.8112   -3.3598 H         1 <0>         0.1361
     36 H6          5.2335   12.0156   -0.9115 H         1 <0>         0.0661
     37 H7          3.7492   13.0271   -0.8959 H         1 <0>         0.1277
     38 H8          5.0674    9.6609   -1.5631 H         1 <0>         0.0662
     39 H9          3.4646    8.9872   -2.0145 H         1 <0>         0.1248
     40 H10         3.3941   10.4572   -4.0122 H         1 <0>         0.1356
     41 H11         4.8785    9.4457   -4.0278 H         1 <0>         0.1376
     42 H12         4.0288   10.2741    0.5334 H         1 <0>         0.0788
     43 H13         2.7284   11.5131    0.5526 H         1 <0>         0.1131
     44 H14         3.2702    7.7986    0.0111 H         1 <0>         0.1477
     45 H15        -2.1908    3.6513    0.0409 H         1 <0>         0.1369
     46 H16        -2.1463    1.1930    0.0187 H         1 <0>         0.1379
     47 H17         0.0021   -0.0041    0.0020 H         1 <0>         0.1345
     48 H18         2.0929    3.7217    0.0012 H         1 <0>         0.1385
     49 H19         3.3119    1.6796   -0.0205 H         1 <0>         0.4339
     50 H20        -2.5702    8.2622    2.1484 H         1 <0>         0.0670
     51 H21        -1.8055    9.5644    1.1757 H         1 <0>         0.0941
     52 H22        -4.0682   10.2263    2.0469 H         1 <0>         0.1130
     53 H23        -4.0066   10.2044    0.2518 H         1 <0>         0.0674
     54 H24        -5.8138    7.0170    0.0909 H         1 <0>         0.1131
     55 H25        -5.0464    8.2942   -0.9124 H         1 <0>         0.0648
     56 H26        -3.5732    6.3100   -0.8077 H         1 <0>         0.1043
     57 H27        -3.6048    6.3577    0.9876 H         1 <0>         0.0710
     58 H28         6.1273   11.2687   -3.0397 H         1 <0>         0.4410
@<TRIPOS>BOND
     1    1    2 1
     2    1   31 1
     3    1   32 1
     4    1   33 1
     5    2    7 1
     6    2    3 1
     7    2   58 1
     8    3    4 1
     9    3   34 1
    10    3   35 1
    11    4    5 1
    12    4   36 1
    13    4   37 1
    14    5    6 1
    15    5    8 1
    16    6    7 1
    17    6   38 1
    18    6   39 1
    19    7   40 1
    20    7   41 1
    21    8    9 1
    22    8   42 1
    23    8   43 1
    24    9   13 1
    25    9   10 2
    26   10   11 1
    27   10   44 1
    28   11   17 ar
    29   11   12 ar
    30   12   13 1
    31   12   14 ar
    32   14   15 ar
    33   14   25 1
    34   15   16 ar
    35   16   17 ar
    36   16   18 1
    37   18   23 ar
    38   18   19 ar
    39   19   20 ar
    40   19   45 1
    41   20   21 ar
    42   20   46 1
    43   21   22 ar
    44   21   47 1
    45   22   23 ar
    46   22   24 1
    47   23   48 1
    48   24   49 1
    49   25   30 1
    50   25   26 1
    51   26   27 1
    52   26   50 1
    53   26   51 1
    54   27   28 1
    55   27   52 1
    56   27   53 1
    57   28   29 1
    58   29   30 1
    59   29   54 1
    60   29   55 1
    61   30   56 1
    62   30   57 1
@<TRIPOS>MOLECULE
ZINC19862659
   58    62     0     0     0
SMALL
USER_CHARGES
3-[6-[(4-methylpiperazin-1-yl)methyl]-4-morpholino-thieno[3,2-d]pyrimidin-2-yl]phenol
@<TRIPOS>ATOM
      1 C1          5.5066   11.8413   -4.9487 C.3       1 <0>         0.0169
      2 N1          5.1826   11.4799   -3.5622 N.3       1 <0>        -0.5429
      3 C2          4.5196   12.5931   -2.8689 C.3       1 <0>         0.0229
      4 C3          4.2712   12.2061   -1.4092 C.3       1 <0>         0.0006
      5 N2          3.4444   10.9921   -1.3608 N.4       1 <0>        -0.4033
      6 C4          4.1075    9.8789   -2.0541 C.3       1 <0>        -0.0053
      7 C5          4.3559   10.2659   -3.5138 C.3       1 <0>         0.0253
      8 C6          3.1205   10.6307    0.0257 C.3       1 <0>         0.0933
      9 C7          2.0810    9.5396    0.0306 C.2       1 <0>        -0.2047
     10 C8          2.2708    8.2077    0.0221 C.2       1 <0>        -0.0716
     11 C9          1.1187    7.3280    0.0284 C.ar      1 <0>         0.1725
     12 C10        -0.1290    7.9875    0.0434 C.ar      1 <0>        -0.2505
     13 S1          0.3055    9.7053    0.0480 S.3       1 <0>         0.1387
     14 C11        -1.3168    7.2728    0.0509 C.ar      1 <0>         0.4268
     15 N3         -1.2560    5.9426    0.0436 N.ar      1 <0>        -0.5152
     16 C12        -0.0760    5.3307    0.0295 C.ar      1 <0>         0.4115
     17 N4          1.0715    5.9749    0.0270 N.ar      1 <0>        -0.4995
     18 C13        -0.0514    3.8476    0.0223 C.ar      1 <0>        -0.0253
     19 C14        -1.2458    3.1286    0.0298 C.ar      1 <0>        -0.1075
     20 C15        -1.2203    1.7487    0.0173 C.ar      1 <0>        -0.0853
     21 C16        -0.0126    1.0758    0.0080 C.ar      1 <0>        -0.1308
     22 C17         1.1810    1.7840    0.0004 C.ar      1 <0>         0.1489
     23 C18         1.1648    3.1693    0.0075 C.ar      1 <0>        -0.1628
     24 O1          2.3659    1.1184   -0.0145 O.3       1 <0>        -0.5053
     25 N5         -2.5381    7.9269    0.0661 N.pl3     1 <0>        -0.4693
     26 C19        -2.6324    8.8400    1.2144 C.3       1 <0>         0.0182
     27 C20        -3.9693    9.5840    1.1594 C.3       1 <0>         0.0625
     28 O2         -5.0375    8.6334    1.1344 O.3       1 <0>        -0.3742
     29 C21        -4.9772    7.7285    0.0285 C.3       1 <0>         0.0566
     30 C22        -3.6505    6.9657    0.0721 C.3       1 <0>         0.0228
     31 H1          6.1246   12.7513   -4.9556 H         1 <0>         0.0853
     32 H2          4.5766   12.0254   -5.5065 H         1 <0>         0.0401
     33 H3          6.0612   11.0178   -5.4222 H         1 <0>         0.0851
     34 H4          5.1626   13.4847   -2.9085 H         1 <0>         0.1266
     35 H5          3.5597   12.8112   -3.3598 H         1 <0>         0.0618
     36 H6          5.2335   12.0156   -0.9115 H         1 <0>         0.1399
     37 H7          3.7492   13.0271   -0.8959 H         1 <0>         0.1401
     38 H8          5.0674    9.6609   -1.5631 H         1 <0>         0.1397
     39 H9          3.4646    8.9872   -2.0145 H         1 <0>         0.1329
     40 H10         3.3941   10.4572   -4.0122 H         1 <0>         0.0610
     41 H11         4.8785    9.4457   -4.0278 H         1 <0>         0.1248
     42 H12         4.0288   10.2741    0.5334 H         1 <0>         0.1532
     43 H13         2.7284   11.5131    0.5526 H         1 <0>         0.1527
     44 H14         3.2702    7.7986    0.0111 H         1 <0>         0.1599
     45 H15        -2.1908    3.6513    0.0409 H         1 <0>         0.1373
     46 H16        -2.1463    1.1930    0.0187 H         1 <0>         0.1395
     47 H17         0.0021   -0.0041    0.0020 H         1 <0>         0.1363
     48 H18         2.0929    3.7217    0.0012 H         1 <0>         0.1391
     49 H19         3.3119    1.6796   -0.0205 H         1 <0>         0.4354
     50 H20        -2.5702    8.2622    2.1484 H         1 <0>         0.0699
     51 H21        -1.8055    9.5644    1.1757 H         1 <0>         0.0915
     52 H22        -4.0682   10.2263    2.0469 H         1 <0>         0.1144
     53 H23        -4.0066   10.2044    0.2518 H         1 <0>         0.0678
     54 H24        -5.8138    7.0170    0.0909 H         1 <0>         0.1155
     55 H25        -5.0464    8.2942   -0.9124 H         1 <0>         0.0660
     56 H26        -3.5732    6.3100   -0.8077 H         1 <0>         0.1064
     57 H27        -3.6048    6.3577    0.9876 H         1 <0>         0.0735
     58 H28         2.4997   11.2032   -1.8832 H         1 <0>         0.4403
@<TRIPOS>BOND
     1    1    2 1
     2    1   31 1
     3    1   32 1
     4    1   33 1
     5    2    7 1
     6    2    3 1
     7    3    4 1
     8    3   34 1
     9    3   35 1
    10    4    5 1
    11    4   36 1
    12    4   37 1
    13    5    6 1
    14    5    8 1
    15    5   58 1
    16    6    7 1
    17    6   38 1
    18    6   39 1
    19    7   40 1
    20    7   41 1
    21    8    9 1
    22    8   42 1
    23    8   43 1
    24    9   13 1
    25    9   10 2
    26   10   11 1
    27   10   44 1
    28   11   17 ar
    29   11   12 ar
    30   12   13 1
    31   12   14 ar
    32   14   15 ar
    33   14   25 1
    34   15   16 ar
    35   16   17 ar
    36   16   18 1
    37   18   23 ar
    38   18   19 ar
    39   19   20 ar
    40   19   45 1
    41   20   21 ar
    42   20   46 1
    43   21   22 ar
    44   21   47 1
    45   22   23 ar
    46   22   24 1
    47   23   48 1
    48   24   49 1
    49   25   30 1
    50   25   26 1
    51   26   27 1
    52   26   50 1
    53   26   51 1
    54   27   28 1
    55   27   52 1
    56   27   53 1
    57   28   29 1
    58   29   30 1
    59   29   54 1
    60   29   55 1
    61   30   56 1
    62   30   57 1
@<TRIPOS>MOLECULE
ZINC19862659
   57    61     0     0     0
SMALL
USER_CHARGES
3-[6-[(4-methylpiperazin-1-yl)methyl]-4-morpholino-thieno[3,2-d]pyrimidin-2-yl]phenol
@<TRIPOS>ATOM
      1 C1          5.5066   11.8413   -4.9487 C.3       1 <0>         0.0223
      2 N1          5.1826   11.4799   -3.5622 N.3       1 <0>        -0.5455
      3 C2          4.5196   12.5931   -2.8689 C.3       1 <0>         0.0543
      4 C3          4.2712   12.2061   -1.4092 C.3       1 <0>         0.0568
      5 N2          3.4444   10.9921   -1.3608 N.3       1 <0>        -0.5349
      6 C4          4.1075    9.8789   -2.0541 C.3       1 <0>         0.0504
      7 C5          4.3559   10.2659   -3.5138 C.3       1 <0>         0.0557
      8 C6          3.1205   10.6307    0.0257 C.3       1 <0>         0.1279
      9 C7          2.0810    9.5396    0.0306 C.2       1 <0>        -0.0755
     10 C8          2.2708    8.2077    0.0221 C.2       1 <0>        -0.1476
     11 C9          1.1187    7.3280    0.0284 C.ar      1 <0>         0.1912
     12 C10        -0.1290    7.9875    0.0434 C.ar      1 <0>        -0.2636
     13 S1          0.3055    9.7053    0.0480 S.3       1 <0>         0.1165
     14 C11        -1.3168    7.2728    0.0509 C.ar      1 <0>         0.4216
     15 N3         -1.2560    5.9426    0.0436 N.ar      1 <0>        -0.5302
     16 C12        -0.0760    5.3307    0.0295 C.ar      1 <0>         0.3912
     17 N4          1.0715    5.9749    0.0270 N.ar      1 <0>        -0.5052
     18 C13        -0.0514    3.8476    0.0223 C.ar      1 <0>        -0.0091
     19 C14        -1.2458    3.1286    0.0298 C.ar      1 <0>        -0.1127
     20 C15        -1.2203    1.7487    0.0173 C.ar      1 <0>        -0.0877
     21 C16        -0.0126    1.0758    0.0080 C.ar      1 <0>        -0.1407
     22 C17         1.1810    1.7840    0.0004 C.ar      1 <0>         0.1472
     23 C18         1.1648    3.1693    0.0075 C.ar      1 <0>        -0.1648
     24 O1          2.3659    1.1184   -0.0145 O.3       1 <0>        -0.5092
     25 N5         -2.5381    7.9269    0.0661 N.pl3     1 <0>        -0.4686
     26 C19        -2.6324    8.8400    1.2144 C.3       1 <0>         0.0173
     27 C20        -3.9693    9.5840    1.1594 C.3       1 <0>         0.0634
     28 O2         -5.0375    8.6334    1.1344 O.3       1 <0>        -0.3789
     29 C21        -4.9772    7.7285    0.0285 C.3       1 <0>         0.0577
     30 C22        -3.6505    6.9657    0.0721 C.3       1 <0>         0.0254
     31 H1          6.1246   12.7513   -4.9556 H         1 <0>         0.0707
     32 H2          4.5766   12.0254   -5.5065 H         1 <0>         0.0276
     33 H3          6.0612   11.0178   -5.4222 H         1 <0>         0.0704
     34 H4          5.1626   13.4847   -2.9085 H         1 <0>         0.0838
     35 H5          3.5597   12.8112   -3.3598 H         1 <0>         0.0448
     36 H6          5.2335   12.0156   -0.9115 H         1 <0>         0.0488
     37 H7          3.7492   13.0271   -0.8959 H         1 <0>         0.0855
     38 H8          5.0674    9.6609   -1.5631 H         1 <0>         0.0480
     39 H9          3.4646    8.9872   -2.0145 H         1 <0>         0.0831
     40 H10         3.3941   10.4572   -4.0122 H         1 <0>         0.0438
     41 H11         4.8785    9.4457   -4.0278 H         1 <0>         0.0819
     42 H12         4.0288   10.2741    0.5334 H         1 <0>         0.0702
     43 H13         2.7284   11.5131    0.5526 H         1 <0>         0.1018
     44 H14         3.2702    7.7986    0.0111 H         1 <0>         0.1494
     45 H15        -2.1908    3.6513    0.0409 H         1 <0>         0.1361
     46 H16        -2.1463    1.1930    0.0187 H         1 <0>         0.1352
     47 H17         0.0021   -0.0041    0.0020 H         1 <0>         0.1317
     48 H18         2.0929    3.7217    0.0012 H         1 <0>         0.1402
     49 H19         3.3119    1.6796   -0.0205 H         1 <0>         0.4352
     50 H20        -2.5702    8.2622    2.1484 H         1 <0>         0.0646
     51 H21        -1.8055    9.5644    1.1757 H         1 <0>         0.0970
     52 H22        -4.0682   10.2263    2.0469 H         1 <0>         0.1116
     53 H23        -4.0066   10.2044    0.2518 H         1 <0>         0.0678
     54 H24        -5.8138    7.0170    0.0909 H         1 <0>         0.1103
     55 H25        -5.0464    8.2942   -0.9124 H         1 <0>         0.0642
     56 H26        -3.5732    6.3100   -0.8077 H         1 <0>         0.1029
     57 H27        -3.6048    6.3577    0.9876 H         1 <0>         0.0685
@<TRIPOS>BOND
     1    1    2 1
     2    1   31 1
     3    1   32 1
     4    1   33 1
     5    2    7 1
     6    2    3 1
     7    3    4 1
     8    3   34 1
     9    3   35 1
    10    4    5 1
    11    4   36 1
    12    4   37 1
    13    5    6 1
    14    5    8 1
    15    6    7 1
    16    6   38 1
    17    6   39 1
    18    7   40 1
    19    7   41 1
    20    8    9 1
    21    8   42 1
    22    8   43 1
    23    9   13 1
    24    9   10 2
    25   10   11 1
    26   10   44 1
    27   11   17 ar
    28   11   12 ar
    29   12   13 1
    30   12   14 ar
    31   14   15 ar
    32   14   25 1
    33   15   16 ar
    34   16   17 ar
    35   16   18 1
    36   18   23 ar
    37   18   19 ar
    38   19   20 ar
    39   19   45 1
    40   20   21 ar
    41   20   46 1
    42   21   22 ar
    43   21   47 1
    44   22   23 ar
    45   22   24 1
    46   23   48 1
    47   24   49 1
    48   25   30 1
    49   25   26 1
    50   26   27 1
    51   26   50 1
    52   26   51 1
    53   27   28 1
    54   27   52 1
    55   27   53 1
    56   28   29 1
    57   29   30 1
    58   29   54 1
    59   29   55 1
    60   30   56 1
    61   30   57 1
@<TRIPOS>MOLECULE
ZINC03963016
   42    46     0     0     0
SMALL
USER_CHARGES
3-(morpholinoBLAHyl)phenol
@<TRIPOS>ATOM
      1 C1         -1.2199    1.7485    0.0174 C.ar      1 <0>        -0.1114
      2 C2         -1.2454    3.1288    0.0308 C.ar      1 <0>        -0.0774
      3 C3         -0.0514    3.8476    0.0228 C.ar      1 <0>        -0.0316
      4 C4          1.1652    3.1691    0.0075 C.ar      1 <0>        -0.0947
      5 C5          1.1814    1.7842    0.0004 C.ar      1 <0>         0.0969
      6 C6         -0.0126    1.0758    0.0080 C.ar      1 <0>        -0.1204
      7 O1          2.3662    1.1187   -0.0145 O.3       1 <0>        -0.4955
      8 C7         -0.0760    5.3307    0.0300 C.ar      1 <0>         0.3845
      9 N1          1.0710    5.9932    0.0217 N.ar      1 <0>        -0.4874
     10 C8          1.0827    7.3220    0.0274 C.ar      1 <0>         0.1715
     11 C9          2.1340    8.3518    0.0216 C.ar      1 <0>        -0.1770
     12 C10         3.5264    8.3236    0.0080 C.ar      1 <0>         0.0114
     13 C11         4.2037    9.5307    0.0066 C.ar      1 <0>        -0.1955
     14 C12         3.4805   10.7116    0.0188 C.ar      1 <0>         0.1704
     15 N2          2.1641   10.7119    0.0316 N.ar      1 <0>        -0.4762
     16 C13         1.4636    9.5855    0.0336 C.ar      1 <0>         0.3115
     17 O2          0.1349    9.3460    0.0455 O.3       1 <0>        -0.1672
     18 C14        -0.1299    8.0233    0.0423 C.ar      1 <0>        -0.0415
     19 C15        -1.3182    7.2817    0.0506 C.ar      1 <0>         0.4009
     20 N3         -1.2469    5.9562    0.0390 N.ar      1 <0>        -0.5158
     21 N4         -2.5483    7.9214    0.0658 N.pl3     1 <0>        -0.4671
     22 C16        -2.6536    8.8336    1.2139 C.3       1 <0>         0.0181
     23 C17        -3.9995    9.5613    1.1590 C.3       1 <0>         0.0659
     24 O3         -5.0560    8.5977    1.1343 O.3       1 <0>        -0.3796
     25 C18        -4.9848    7.6934    0.0286 C.3       1 <0>         0.0595
     26 C19        -3.6490    6.9468    0.0722 C.3       1 <0>         0.0258
     27 H1         -2.1460    1.1928    0.0184 H         1 <0>         0.1359
     28 H2         -2.1904    3.6515    0.0423 H         1 <0>         0.1394
     29 H3          2.0932    3.7215    0.0009 H         1 <0>         0.1435
     30 H4          0.0021   -0.0041    0.0020 H         1 <0>         0.1341
     31 H5          2.7007    0.9308   -0.9022 H         1 <0>         0.3927
     32 H6          4.0626    7.3862   -0.0010 H         1 <0>         0.1508
     33 H7          5.2835    9.5514   -0.0034 H         1 <0>         0.1556
     34 H8          4.0084   11.6537    0.0174 H         1 <0>         0.1815
     35 H9         -2.5862    8.2625    2.1399 H         1 <0>         0.0633
     36 H10        -1.8440    9.5623    1.1753 H         1 <0>         0.1014
     37 H11        -4.0451   10.1746    0.2590 H         1 <0>         0.0678
     38 H12        -4.1066   10.1965    2.0382 H         1 <0>         0.1107
     39 H13        -5.0591    8.2524   -0.9042 H         1 <0>         0.0641
     40 H14        -5.8042    6.9772    0.0900 H         1 <0>         0.1096
     41 H15        -3.5659    6.2983   -0.8000 H         1 <0>         0.1026
     42 H16        -3.5970    6.3450    0.9795 H         1 <0>         0.0691
@<TRIPOS>BOND
     1    1    6 ar
     2    1    2 ar
     3    1   27 1
     4    2    3 ar
     5    2   28 1
     6    3    4 ar
     7    3    8 1
     8    4    5 ar
     9    4   29 1
    10    5    6 ar
    11    5    7 1
    12    6   30 1
    13    7   31 1
    14    8   20 ar
    15    8    9 ar
    16    9   10 ar
    17   10   18 ar
    18   10   11 1
    19   11   16 ar
    20   11   12 ar
    21   12   13 ar
    22   12   32 1
    23   13   14 ar
    24   13   33 1
    25   14   15 ar
    26   14   34 1
    27   15   16 ar
    28   16   17 1
    29   17   18 1
    30   18   19 ar
    31   19   20 ar
    32   19   21 1
    33   21   26 1
    34   21   22 1
    35   22   23 1
    36   22   35 1
    37   22   36 1
    38   23   24 1
    39   23   37 1
    40   23   38 1
    41   24   25 1
    42   25   26 1
    43   25   39 1
    44   25   40 1
    45   26   41 1
    46   26   42 1
