@<TRIPOS>MOLECULE
ZINC49113058
   62    66     0     0     0
SMALL
USER_CHARGES

@<TRIPOS>ATOM
      1 C1          0.0280    1.1038   -0.0577 C.3       1 <0>         0.0862
      2 N1          0.7835   -0.1512   -0.0345 N.pl3     1 <0>        -0.2368
      3 C2          1.2848   -0.7741   -1.1183 C.2       1 <0>         0.0233
      4 C3          1.9409   -1.9003   -0.6679 C.2       1 <0>        -0.1001
      5 C4          1.7732   -1.9052    0.7170 C.2       1 <0>        -0.0127
      6 N2          1.0739   -0.8239    1.0284 N.2       1 <0>        -0.2422
      7 C5          2.2840   -2.9218    1.6595 C.2       1 <0>         0.6112
      8 O1          2.9205   -3.8706    1.2439 O.2       1 <0>        -0.5290
      9 N3          2.0445   -2.7974    2.9799 N.am      1 <0>        -0.8394
     10 C6          2.6653   -2.8356   -1.5916 C.3       1 <0>        -0.0520
     11 C7          1.9706   -2.8582   -2.9533 C.3       1 <0>        -0.0643
     12 C8          1.6241   -1.4832   -3.4453 C.ar      1 <0>        -0.2117
     13 C9          1.2621   -0.4598   -2.5570 C.ar      1 <0>         0.2994
     14 N4          0.9247    0.7321   -3.0254 N.ar      1 <0>        -0.5525
     15 C10         0.9505    0.9653   -4.3312 C.ar      1 <0>         0.5639
     16 N5          1.3106    0.0280   -5.1962 N.ar      1 <0>        -0.5606
     17 C11         1.6470   -1.1890   -4.7955 C.ar      1 <0>         0.1918
     18 N6          0.5923    2.2177   -4.8015 N.pl3     1 <0>        -0.6275
     19 C12         0.6747    2.5016   -6.1704 C.ar      1 <0>         0.1841
     20 C13         0.4057    1.5105   -7.1026 C.ar      1 <0>        -0.1464
     21 C14         0.4877    1.7952   -8.4585 C.ar      1 <0>         0.1793
     22 C15         0.8392    3.0707   -8.8806 C.ar      1 <0>        -0.1627
     23 C16         1.1079    4.0588   -7.9520 C.ar      1 <0>        -0.1427
     24 C17         1.0213    3.7812   -6.5979 C.ar      1 <0>         0.0684
     25 O2          1.2802    4.7569   -5.6851 O.3       1 <0>        -0.3185
     26 C18         1.6295    6.0455   -6.1944 C.3       1 <0>         0.0285
     27 N7          0.2167    0.7966   -9.4005 N.pl3     1 <0>        -0.6423
     28 C19        -0.2961   -0.5176   -8.9834 C.3       1 <0>         0.1029
     29 C20        -1.5309   -0.8477   -9.8284 C.3       1 <0>        -0.0239
     30 N8         -1.1869   -0.7557  -11.2529 N.4       1 <0>        -0.3833
     31 C21        -0.8335    0.6282  -11.5936 C.3       1 <0>        -0.0233
     32 C22         0.4306    1.0333  -10.8366 C.3       1 <0>         0.1008
     33 C23        -2.3384   -1.1783  -12.0612 C.3       1 <0>        -0.0471
     34 H1          0.7164    1.9440    0.0325 H         1 <0>         0.0931
     35 H2         -0.5188    1.1813   -0.9975 H         1 <0>         0.1027
     36 H3         -0.6758    1.1196    0.7745 H         1 <0>         0.1007
     37 H4          1.5366   -2.0404    3.3115 H         1 <0>         0.4084
     38 H5          2.3799   -3.4648    3.5987 H         1 <0>         0.4099
     39 H6          3.6943   -2.4981   -1.7152 H         1 <0>         0.0842
     40 H7          2.6624   -3.8392   -1.1664 H         1 <0>         0.1050
     41 H8          2.6303   -3.3359   -3.6777 H         1 <0>         0.0890
     42 H9          1.0554   -3.4447   -2.8724 H         1 <0>         0.0825
     43 H10         1.9357   -1.9413   -5.5145 H         1 <0>         0.1753
     44 H11         0.2844    2.8983   -4.1827 H         1 <0>         0.4299
     45 H12         0.1331    0.5186   -6.7738 H         1 <0>         0.1534
     46 H13         0.9030    3.2909   -9.9360 H         1 <0>         0.1260
     47 H14         1.3813    5.0499   -8.2828 H         1 <0>         0.1376
     48 H15         2.5320    5.9643   -6.8003 H         1 <0>         0.0569
     49 H16         0.8133    6.4273   -6.8077 H         1 <0>         0.0569
     50 H17         1.8098    6.7278   -5.3637 H         1 <0>         0.1039
     51 H18         0.4698   -1.2768   -9.1419 H         1 <0>         0.0875
     52 H19        -0.5715   -0.4856   -7.9292 H         1 <0>         0.1246
     53 H20        -1.8676   -1.8590   -9.6004 H         1 <0>         0.1398
     54 H21        -2.3274   -0.1393   -9.6003 H         1 <0>         0.1315
     55 H22        -0.6562    0.7044  -12.6664 H         1 <0>         0.1404
     56 H23        -1.6510    1.2919  -11.3121 H         1 <0>         0.1317
     57 H24         0.6353    2.0903  -11.0071 H         1 <0>         0.1260
     58 H25         1.2711    0.4335  -11.1855 H         1 <0>         0.0867
     59 H26        -3.1886   -0.5298  -11.8494 H         1 <0>         0.1211
     60 H27        -2.0843   -1.1104  -13.1190 H         1 <0>         0.1249
     61 H28        -2.5968   -2.2082  -11.8149 H         1 <0>         0.1248
     62 H29        -0.4025   -1.3596  -11.4479 H         1 <0>         0.4247
@<TRIPOS>BOND
     1    1    2 1
     2    1   34 1
     3    1   35 1
     4    1   36 1
     5    2    6 1
     6    2    3 1
     7    3   13 1
     8    3    4 2
     9    4    5 1
    10    4   10 1
    11    5    6 2
    12    5    7 1
    13    7    8 2
    14    7    9 am
    15    9   37 1
    16    9   38 1
    17   10   11 1
    18   10   39 1
    19   10   40 1
    20   11   12 1
    21   11   41 1
    22   11   42 1
    23   12   17 ar
    24   12   13 ar
    25   13   14 ar
    26   14   15 ar
    27   15   16 ar
    28   15   18 1
    29   16   17 ar
    30   17   43 1
    31   18   19 1
    32   18   44 1
    33   19   24 ar
    34   19   20 ar
    35   20   21 ar
    36   20   45 1
    37   21   22 ar
    38   21   27 1
    39   22   23 ar
    40   22   46 1
    41   23   24 ar
    42   23   47 1
    43   24   25 1
    44   25   26 1
    45   26   48 1
    46   26   49 1
    47   26   50 1
    48   27   32 1
    49   27   28 1
    50   28   29 1
    51   28   51 1
    52   28   52 1
    53   29   30 1
    54   29   53 1
    55   29   54 1
    56   30   31 1
    57   30   33 1
    58   30   62 1
    59   31   32 1
    60   31   55 1
    61   31   56 1
    62   32   57 1
    63   32   58 1
    64   33   59 1
    65   33   60 1
    66   33   61 1
@<TRIPOS>MOLECULE
ZINC03814434
   62    69     0     0     0
SMALL
USER_CHARGES

@<TRIPOS>ATOM
      1 C1         -0.1295    1.5952   -0.2973 C.3       1 <0>        -0.1687
      2 C2         -0.0862    0.0696   -0.1900 C.3       1 <0>         0.3342
      3 C3          0.5692   -0.4501   -1.4637 C.3       1 <0>         0.0405
      4 H1          1.4796    0.1159   -1.6612 H         1 <0>         0.1372
      5 C4          0.9167   -1.9328   -1.2889 C.3       1 <0>        -0.0061
      6 H2          1.3963   -2.3075   -2.1932 H         1 <0>         0.1555
      7 C5          1.8785   -2.0596   -0.1021 C.3       1 <0>        -0.1827
      8 C6          1.2061   -1.5198    1.1541 C.3       1 <0>         0.2999
      9 H3          1.9797   -1.4243    1.9161 H         1 <0>         0.1550
     10 O1          0.6555   -0.2442    0.9666 O.3       1 <0>        -0.3234
     11 N1          0.2189   -2.4746    1.6600 N.pl3     1 <0>        -0.5366
     12 C7          0.4705   -3.5508    2.4739 C.ar      1 <0>         0.1469
     13 C8          1.6649   -4.0152    3.0240 C.ar      1 <0>        -0.1522
     14 C9          1.5948   -5.1456    3.8201 C.ar      1 <0>        -0.0582
     15 C10         0.4006   -5.7997    4.0696 C.ar      1 <0>        -0.1457
     16 C11        -0.7984   -5.3597    3.5358 C.ar      1 <0>        -0.0280
     17 C12        -0.7487   -4.2198    2.7307 C.ar      1 <0>        -0.1131
     18 C13        -1.7893   -3.4830    2.0197 C.ar      1 <0>         0.0276
     19 C14        -1.1442   -2.4197    1.3841 C.ar      1 <0>         0.0376
     20 C15        -1.8806   -1.5095    0.6175 C.ar      1 <0>         0.0894
     21 N2         -1.4718   -0.3951   -0.1095 N.pl3     1 <0>        -0.5183
     22 C16        -2.5611    0.1913   -0.7090 C.ar      1 <0>         0.1618
     23 C17        -2.6521    1.3277   -1.5118 C.ar      1 <0>        -0.1305
     24 C18        -3.9109    1.6745   -1.9733 C.ar      1 <0>        -0.0737
     25 C19        -5.0393    0.9368   -1.6616 C.ar      1 <0>        -0.1358
     26 C20        -4.9745   -0.1955   -0.8662 C.ar      1 <0>        -0.0503
     27 C21        -3.7147   -0.5596   -0.3919 C.ar      1 <0>        -0.1042
     28 C22        -3.2693   -1.6660    0.4845 C.ar      1 <0>        -0.0360
     29 C23        -3.9084   -2.7313    1.1102 C.ar      1 <0>        -0.0288
     30 C24        -3.1873   -3.6421    1.8754 C.ar      1 <0>        -0.1255
     31 C25        -4.1221   -4.6480    2.4030 C.2       1 <0>         0.5632
     32 O2         -3.8062   -5.5851    3.1110 O.2       1 <0>        -0.5106
     33 N3         -5.3744   -4.3851    1.9926 N.am      1 <0>        -0.7162
     34 C26        -5.3495   -3.1771    1.1601 C.3       1 <0>         0.1358
     35 N4         -0.3067   -2.7008   -1.0216 N.4       1 <0>        -0.5252
     36 C27         0.0145   -4.1336   -0.9773 C.3       1 <0>        -0.0497
     37 O3         -0.3340   -0.2979   -2.5607 O.3       1 <0>        -0.3614
     38 C28         0.3101   -0.0933   -3.8198 C.3       1 <0>         0.0162
     39 H4          0.8261    2.0094    0.0240 H         1 <0>         0.0984
     40 H5         -0.3202    1.8814   -1.3317 H         1 <0>         0.1036
     41 H6         -0.9255    1.9818    0.3392 H         1 <0>         0.0921
     42 H7          2.1370   -3.1081    0.0458 H         1 <0>         0.1233
     43 H8          2.7835   -1.4869   -0.3048 H         1 <0>         0.1455
     44 H9          2.6036   -3.5149    2.8368 H         1 <0>         0.1365
     45 H10         2.5026   -5.5304    4.2610 H         1 <0>         0.1359
     46 H11         0.4045   -6.6780    4.6980 H         1 <0>         0.1352
     47 H12        -1.7278   -5.8736    3.7323 H         1 <0>         0.1600
     48 H13        -1.7792    1.9122   -1.7624 H         1 <0>         0.1440
     49 H14        -4.0153    2.5500   -2.5970 H         1 <0>         0.1336
     50 H15        -5.9967    1.2527   -2.0488 H         1 <0>         0.1332
     51 H16        -5.8575   -0.7687   -0.6249 H         1 <0>         0.1415
     52 H17        -6.1628   -4.9065    2.2103 H         1 <0>         0.4348
     53 H18        -5.9671   -2.3994    1.6094 H         1 <0>         0.1115
     54 H19        -5.7060   -3.4063    0.1559 H         1 <0>         0.1103
     55 H20        -0.6958   -2.4158   -0.1353 H         1 <0>         0.4186
     56 H21         0.4349   -4.4415   -1.9347 H         1 <0>         0.1256
     57 H22         0.7403   -4.3189   -0.1854 H         1 <0>         0.1191
     58 H23        -0.8932   -4.7035   -0.7789 H         1 <0>         0.1256
     59 H24         0.9168    0.8112   -3.7748 H         1 <0>         0.0633
     60 H25         0.9482   -0.9479   -4.0446 H         1 <0>         0.0514
     61 H26        -0.4433    0.0130   -4.6003 H         1 <0>         0.1100
     62 H27        -0.9785   -2.5293   -1.7546 H         1 <0>         0.4274
@<TRIPOS>BOND
     1    1    2 1
     2    1   39 1
     3    1   40 1
     4    1   41 1
     5    2   10 1
     6    2   21 1
     7    2    3 1
     8    3    4 1
     9    3    5 1
    10    3   37 1
    11    5    6 1
    12    5    7 1
    13    5   35 1
    14    7    8 1
    15    7   42 1
    16    7   43 1
    17    8    9 1
    18    8   10 1
    19    8   11 1
    20   11   19 1
    21   11   12 1
    22   12   17 ar
    23   12   13 ar
    24   13   14 ar
    25   13   44 1
    26   14   15 ar
    27   14   45 1
    28   15   16 ar
    29   15   46 1
    30   16   17 ar
    31   16   47 1
    32   17   18 1
    33   18   30 ar
    34   18   19 ar
    35   19   20 ar
    36   20   28 ar
    37   20   21 1
    38   21   22 1
    39   22   27 ar
    40   22   23 ar
    41   23   24 ar
    42   23   48 1
    43   24   25 ar
    44   24   49 1
    45   25   26 ar
    46   25   50 1
    47   26   27 ar
    48   26   51 1
    49   27   28 1
    50   28   29 ar
    51   29   34 1
    52   29   30 ar
    53   30   31 1
    54   31   32 2
    55   31   33 am
    56   33   34 1
    57   33   52 1
    58   34   53 1
    59   34   54 1
    60   35   36 1
    61   35   55 1
    62   35   62 1
    63   36   56 1
    64   36   57 1
    65   36   58 1
    66   37   38 1
    67   38   59 1
    68   38   60 1
    69   38   61 1
@<TRIPOS>MOLECULE
ZINC03964325
   57    59     0     0     0
SMALL
USER_CHARGES

@<TRIPOS>ATOM
      1 C1          0.1489    2.0884    0.1150 C.3       1 <0>        -0.1876
      2 C2          0.1348    0.5603    0.1888 C.3       1 <0>        -0.0191
      3 N1         -1.2520    0.0881    0.2979 N.4       1 <0>        -0.3822
      4 C3         -1.9779    0.4111   -0.9377 C.3       1 <0>        -0.0142
      5 C4         -3.4549    0.0484   -0.7712 C.3       1 <0>        -0.1895
      6 C5         -1.2593   -1.3663    0.5041 C.3       1 <0>        -0.0265
      7 C6         -0.6131   -1.6936    1.8518 C.3       1 <0>         0.0952
      8 N2         -0.6203   -3.1440    2.0575 N.am      1 <0>        -0.7289
      9 C7         -0.0988   -3.6675    3.1846 C.2       1 <0>         0.6111
     10 O1          0.3779   -2.9358    4.0309 O.2       1 <0>        -0.5184
     11 C8         -0.1061   -5.1270    3.3915 C.2       1 <0>        -0.2420
     12 C9          0.9071   -6.0320    3.0089 C.2       1 <0>        -0.0577
     13 C10         0.4868   -7.2892    3.3960 C.2       1 <0>        -0.0075
     14 N3         -0.7476   -7.1595    3.9982 N.pl3     1 <0>        -0.4910
     15 H1         -1.2731   -7.8879    4.3645 H         1 <0>         0.4270
     16 C11        -1.1044   -5.8642    4.0022 C.2       1 <0>         0.1158
     17 C12        -2.3825   -5.3072    4.5743 C.3       1 <0>        -0.0999
     18 C13         1.1957   -8.4957    3.2079 C.2       1 <0>         0.0729
     19 C14         0.5100   -9.6674    2.9570 C.2       1 <0>        -0.1889
     20 C15         1.0648  -11.0377    2.8871 C.ar      1 <0>        -0.0736
     21 C16         2.3472  -11.5557    3.0375 C.ar      1 <0>        -0.1000
     22 C17         2.5553  -12.9162    2.9116 C.ar      1 <0>         0.0861
     23 C18         1.4888  -13.7593    2.6366 C.ar      1 <0>        -0.1139
     24 C19         0.2139  -13.2531    2.4856 C.ar      1 <0>        -0.1021
     25 C20        -0.0144  -11.8871    2.6092 C.ar      1 <0>         0.1282
     26 N4         -1.1765  -11.1301    2.5069 N.am      1 <0>        -0.6466
     27 C21        -0.9294   -9.8245    2.7079 C.2       1 <0>         0.5595
     28 O2         -1.7538   -8.9280    2.6842 O.2       1 <0>        -0.5156
     29 F1          3.7984  -13.4252    3.0561 F         1 <0>        -0.1318
     30 C22         2.1990   -5.6919    2.3116 C.3       1 <0>        -0.0931
     31 H2          1.1793    2.4435    0.1331 H         1 <0>         0.1076
     32 H3         -0.3308    2.4121   -0.8087 H         1 <0>         0.0811
     33 H4         -0.3916    2.4984    0.9682 H         1 <0>         0.0809
     34 H5          0.5888    0.1488   -0.7126 H         1 <0>         0.1317
     35 H6          0.6996    0.2334    1.0619 H         1 <0>         0.1337
     36 H7         -1.8867    1.4775   -1.1444 H         1 <0>         0.1351
     37 H8         -1.5554   -0.1571   -1.7664 H         1 <0>         0.1307
     38 H9         -3.5537   -1.0316   -0.6617 H         1 <0>         0.0802
     39 H10        -3.8523    0.5414    0.1160 H         1 <0>         0.0808
     40 H11        -4.0109    0.3769   -1.6492 H         1 <0>         0.1074
     41 H12        -2.2871   -1.7292    0.4963 H         1 <0>         0.1397
     42 H13        -0.6973   -1.8494   -0.2952 H         1 <0>         0.1376
     43 H14         0.4147   -1.3306    1.8596 H         1 <0>         0.0893
     44 H15        -1.1751   -1.2105    2.6511 H         1 <0>         0.0890
     45 H16        -1.0005   -3.7277    1.3824 H         1 <0>         0.4099
     46 H17        -3.1529   -5.3000    3.8032 H         1 <0>         0.0840
     47 H18        -2.7087   -5.9289    5.4080 H         1 <0>         0.0782
     48 H19        -2.2103   -4.2898    4.9254 H         1 <0>         0.0840
     49 H20         2.2744   -8.5020    3.2604 H         1 <0>         0.1589
     50 H21         3.1765  -10.8977    3.2512 H         1 <0>         0.1436
     51 H22         1.6578  -14.8215    2.5394 H         1 <0>         0.1485
     52 H23        -0.6084  -13.9196    2.2712 H         1 <0>         0.1415
     53 H24        -2.0541  -11.4980    2.3189 H         1 <0>         0.4217
     54 H25         2.9686   -5.4822    3.0545 H         1 <0>         0.0785
     55 H26         2.5107   -6.5337    1.6932 H         1 <0>         0.0726
     56 H27         2.0522   -4.8138    1.6827 H         1 <0>         0.0634
     57 H28        -1.7009    0.5410    1.0799 H         1 <0>         0.4247
@<TRIPOS>BOND
     1    1    2 1
     2    1   31 1
     3    1   32 1
     4    1   33 1
     5    2    3 1
     6    2   34 1
     7    2   35 1
     8    3    4 1
     9    3    6 1
    10    3   57 1
    11    4    5 1
    12    4   36 1
    13    4   37 1
    14    5   38 1
    15    5   39 1
    16    5   40 1
    17    6    7 1
    18    6   41 1
    19    6   42 1
    20    7    8 1
    21    7   43 1
    22    7   44 1
    23    8    9 am
    24    8   45 1
    25    9   10 2
    26    9   11 1
    27   11   16 2
    28   11   12 1
    29   12   13 2
    30   12   30 1
    31   13   14 1
    32   13   18 1
    33   14   15 1
    34   14   16 1
    35   16   17 1
    36   17   46 1
    37   17   47 1
    38   17   48 1
    39   18   19 2
    40   18   49 1
    41   19   27 1
    42   19   20 1
    43   20   25 ar
    44   20   21 ar
    45   21   22 ar
    46   21   50 1
    47   22   23 ar
    48   22   29 1
    49   23   24 ar
    50   23   51 1
    51   24   25 ar
    52   24   52 1
    53   25   26 1
    54   26   27 am
    55   26   53 1
    56   27   28 2
    57   30   54 1
    58   30   55 1
    59   30   56 1
