@<TRIPOS>MOLECULE
ZINC00895129
   16    17     0     0     0
SMALL
USER_CHARGES

@<TRIPOS>ATOM
      1 C1         -0.0156    1.2968    0.0092 C.2       1 <0>         0.2103
      2 N1         -1.3058    1.7418    0.0180 N.pl3     1 <0>        -0.5624
      3 H1         -1.5930    2.6683    0.0241 H         1 <0>         0.4300
      4 C2         -2.1202    0.6420    0.0160 C.2       1 <0>         0.3097
      5 C3         -1.2706   -0.4701    0.0058 C.2       1 <0>        -0.1485
      6 N2          0.0021   -0.0041    0.0020 N.2       1 <0>        -0.4223
      7 C4         -1.8465   -1.7621    0.0016 C.2       1 <0>         0.5946
      8 N3         -3.1941   -1.8640    0.0077 N.am      1 <0>        -0.6571
      9 C5         -3.9692   -0.7427    0.0176 C.2       1 <0>         0.6589
     10 N4         -3.4463    0.4631    0.0216 N.2       1 <0>        -0.5849
     11 N5         -5.3349   -0.8768    0.0236 N.pl3     1 <0>        -0.8172
     12 O1         -1.1447   -2.7590   -0.0077 O.2       1 <0>        -0.5062
     13 H2          0.8596    1.9297    0.0042 H         1 <0>         0.2266
     14 H3         -5.7355   -1.7602    0.0208 H         1 <0>         0.4182
     15 H4         -3.6119   -2.7394    0.0047 H         1 <0>         0.4202
     16 H5         -5.8996   -0.0882    0.0307 H         1 <0>         0.4299
@<TRIPOS>BOND
     1    1    6 2
     2    1   13 1
     3    1    2 1
     4    2    3 1
     5    2    4 1
     6    4    5 2
     7    4   10 1
     8    5    7 1
     9    5    6 1
    10    7   12 2
    11    7    8 am
    12    8    9 1
    13    8   15 1
    14    9   10 2
    15    9   11 1
    16   11   14 1
    17   11   16 1
@<TRIPOS>MOLECULE
ZINC05420970
   29    31     0     0     0
SMALL
USER_CHARGES
2-amino-7-(3-pyridylmethyl)-3,5-dihydropyrrolo[2,3-e]pyrimidin-4-one
@<TRIPOS>ATOM
      1 C1         -0.0837    3.7947    0.0223 C.ar      1 <0>        -0.1737
      2 C2          1.1498    3.1612    0.0076 C.ar      1 <0>        -0.0618
      3 C3          1.1797    1.7752    0.0003 C.ar      1 <0>        -0.1209
      4 C4         -0.0126    1.0758    0.0080 C.ar      1 <0>         0.0983
      5 N1         -1.1675    1.7118    0.0169 N.ar      1 <0>        -0.4867
      6 C5         -1.2339    3.0290    0.0292 C.ar      1 <0>         0.0877
      7 C6          2.4953    1.0405   -0.0162 C.3       1 <0>         0.0024
      8 C7          2.9203    0.8032   -1.4424 C.2       1 <0>        -0.1755
      9 C8          2.6925   -0.3136   -2.1628 C.2       1 <0>         0.0720
     10 N2          3.2208   -0.1660   -3.4087 N.pl3     1 <0>        -0.5363
     11 H1          3.1328   -0.9799   -4.1434 H         1 <0>         0.4518
     12 C9          3.8059    1.0795   -3.4971 C.2       1 <0>        -0.1349
     13 C10         3.6220    1.7134   -2.2627 C.2       1 <0>         0.1714
     14 N3          4.1100    2.9555   -2.0742 N.2       1 <0>        -0.5668
     15 C11         4.7453    3.5837   -3.0348 C.2       1 <0>         0.6242
     16 N4          4.9462    3.0138   -4.2578 N.am      1 <0>        -0.6682
     17 C12         4.4899    1.7687   -4.5158 C.2       1 <0>         0.5820
     18 O1          4.6670    1.2532   -5.6071 O.2       1 <0>        -0.5491
     19 N5          5.2220    4.8510   -2.8024 N.pl3     1 <0>        -0.8555
     20 H2         -0.1446    4.8730    0.0280 H         1 <0>         0.1314
     21 H3          2.0654    3.7339    0.0016 H         1 <0>         0.1366
     22 H4          0.0021   -0.0041    0.0020 H         1 <0>         0.1513
     23 H5         -2.1984    3.5147    0.0407 H         1 <0>         0.1518
     24 H6          3.2583    1.6431    0.4983 H         1 <0>         0.0854
     25 H7          2.3825    0.0748    0.4983 H         1 <0>         0.0816
     26 H8          2.1713   -1.1898   -1.8065 H         1 <0>         0.1796
     27 H9          5.7569    5.3917   -3.5971 H         1 <0>         0.4320
     28 H10         5.0688    5.3250   -1.8217 H         1 <0>         0.4506
     29 H11         5.4828    3.5685   -5.0416 H         1 <0>         0.4393
@<TRIPOS>BOND
     1    1    6 ar
     2    1    2 ar
     3    1   20 1
     4    2    3 ar
     5    2   21 1
     6    3    4 ar
     7    3    7 1
     8    4    5 ar
     9    4   22 1
    10    5    6 ar
    11    6   23 1
    12    7    8 1
    13    7   24 1
    14    7   25 1
    15    8   13 1
    16    8    9 2
    17    9   10 1
    18    9   26 1
    19   10   11 1
    20   10   12 1
    21   12   17 1
    22   12   13 2
    23   13   14 1
    24   14   15 2
    25   15   16 1
    26   15   19 1
    27   16   17 am
    28   16   29 1
    29   17   18 2
    30   19   27 1
    31   19   28 1
@<TRIPOS>MOLECULE
ZINC05420970
   28    30     0     0     0
SMALL
USER_CHARGES
2-amino-7-(3-pyridylmethyl)-3,5-dihydropyrrolo[2,3-e]pyrimidin-4-one
@<TRIPOS>ATOM
      1 C1         -0.0837    3.7947    0.0223 C.ar      1 <0>        -0.1747
      2 C2          1.1498    3.1612    0.0076 C.ar      1 <0>        -0.0590
      3 C3          1.1797    1.7752    0.0003 C.ar      1 <0>        -0.1038
      4 C4         -0.0126    1.0758    0.0080 C.ar      1 <0>         0.0917
      5 N1         -1.1675    1.7118    0.0169 N.ar      1 <0>        -0.4916
      6 C5         -1.2339    3.0290    0.0292 C.ar      1 <0>         0.0757
      7 C6          2.4953    1.0405   -0.0162 C.3       1 <0>         0.0121
      8 C7          2.9203    0.8032   -1.4424 C.2       1 <0>        -0.2037
      9 C8          2.6925   -0.3136   -2.1628 C.2       1 <0>         0.0251
     10 N2          3.2208   -0.1660   -3.4087 N.pl3     1 <0>        -0.5492
     11 H1          3.1328   -0.9799   -4.1434 H         1 <0>         0.4279
     12 C9          3.8059    1.0795   -3.4971 C.ar      1 <0>        -0.1682
     13 C10         3.6220    1.7134   -2.2627 C.ar      1 <0>         0.1722
     14 N3          4.1100    2.9555   -2.0742 N.ar      1 <0>        -0.6597
     15 C11         4.7453    3.5837   -3.0348 C.ar      1 <0>         0.5872
     16 N4          4.9462    3.0138   -4.2578 N.ar      1 <0>        -0.7124
     17 C12         4.4899    1.7687   -4.5158 C.ar      1 <0>         0.5403
     18 O1          4.6670    1.2532   -5.6071 O.3       1 <0>        -0.6337
     19 N5          5.2220    4.8510   -2.8024 N.pl3     1 <0>        -0.8612
     20 H2         -0.1446    4.8730    0.0280 H         1 <0>         0.1275
     21 H3          2.0654    3.7339    0.0016 H         1 <0>         0.1390
     22 H4          0.0021   -0.0041    0.0020 H         1 <0>         0.1485
     23 H5         -2.1984    3.5147    0.0407 H         1 <0>         0.1465
     24 H6          3.2583    1.6431    0.4983 H         1 <0>         0.0767
     25 H7          2.3825    0.0748    0.4983 H         1 <0>         0.0667
     26 H8          2.1713   -1.1898   -1.8065 H         1 <0>         0.1539
     27 H9          5.7569    5.3917   -3.5971 H         1 <0>         0.4156
     28 H10         5.0688    5.3250   -1.8217 H         1 <0>         0.4106
@<TRIPOS>BOND
     1    1    6 ar
     2    1    2 ar
     3    1   20 1
     4    2    3 ar
     5    2   21 1
     6    3    4 ar
     7    3    7 1
     8    4    5 ar
     9    4   22 1
    10    5    6 ar
    11    6   23 1
    12    7    8 1
    13    7   24 1
    14    7   25 1
    15    8   13 1
    16    8    9 2
    17    9   10 1
    18    9   26 1
    19   10   11 1
    20   10   12 1
    21   12   17 ar
    22   12   13 ar
    23   13   14 ar
    24   14   15 ar
    25   15   16 ar
    26   15   19 1
    27   16   17 ar
    28   17   18 1
    29   19   27 1
    30   19   28 1
@<TRIPOS>MOLECULE
ZINC00005543
   27    29     0     0     0
SMALL
USER_CHARGES

@<TRIPOS>ATOM
      1 C1         -0.0167    1.3781    0.0096 C.2       1 <0>        -0.1486
      2 C2          1.1597    2.0514    0.0020 C.2       1 <0>        -0.1772
      3 S1          2.3478    0.7191   -0.0165 S.3       1 <0>         0.0119
      4 C3          1.1962   -0.6452   -0.0128 C.2       1 <0>        -0.1522
      5 C4          0.0021   -0.0041    0.0020 C.2       1 <0>        -0.1166
      6 C5         -1.2859   -0.7864    0.0106 C.3       1 <0>         0.0155
      7 C6         -1.7293   -1.0396   -1.4073 C.2       1 <0>        -0.1623
      8 C7         -2.5984   -0.2881   -2.1129 C.2       1 <0>         0.0805
      9 N1         -2.7562   -0.8221   -3.3552 N.pl3     1 <0>        -0.5242
     10 H1         -3.3281   -0.4681   -4.0540 H         1 <0>         0.4246
     11 C8         -1.9683   -1.9493   -3.4561 C.2       1 <0>        -0.1424
     12 C9         -1.3036   -2.1023   -2.2338 C.2       1 <0>         0.1728
     13 N2         -0.4554   -3.1357   -2.0632 N.2       1 <0>        -0.5535
     14 C10        -0.2410   -3.9988   -3.0277 C.2       1 <0>         0.6170
     15 N3         -0.8598   -3.8933   -4.2389 N.am      1 <0>        -0.6525
     16 C11        -1.7295   -2.8874   -4.4776 C.2       1 <0>         0.5821
     17 O1         -2.2851   -2.7869   -5.5589 O.2       1 <0>        -0.5429
     18 N4          0.6315   -5.0378   -2.8120 N.pl3     1 <0>        -0.8286
     19 H2         -0.9545    1.9134    0.0259 H         1 <0>         0.1313
     20 H3          1.3332    3.1174    0.0058 H         1 <0>         0.1823
     21 H4          1.3986   -1.7060   -0.0210 H         1 <0>         0.1854
     22 H5         -1.1294   -1.7384    0.5178 H         1 <0>         0.0837
     23 H6         -2.0533   -0.2172    0.5351 H         1 <0>         0.0771
     24 H7         -3.0931    0.6002   -1.7488 H         1 <0>         0.1811
     25 H8          1.0791   -5.1255   -1.9559 H         1 <0>         0.4272
     26 H9          0.8000   -5.6837   -3.5158 H         1 <0>         0.4122
     27 H10        -0.6787   -4.5482   -4.9311 H         1 <0>         0.4163
@<TRIPOS>BOND
     1    1    5 1
     2    1    2 2
     3    1   19 1
     4    2    3 1
     5    2   20 1
     6    3    4 1
     7    4    5 2
     8    4   21 1
     9    5    6 1
    10    6    7 1
    11    6   22 1
    12    6   23 1
    13    7   12 1
    14    7    8 2
    15    8    9 1
    16    8   24 1
    17    9   10 1
    18    9   11 1
    19   11   16 1
    20   11   12 2
    21   12   13 1
    22   13   14 2
    23   14   15 1
    24   14   18 1
    25   15   16 am
    26   15   27 1
    27   16   17 2
    28   18   25 1
    29   18   26 1
@<TRIPOS>MOLECULE
ZINC13514984
   18    19     0     0     0
SMALL
USER_CHARGES

@<TRIPOS>ATOM
      1 C1         -0.0164    1.3551    0.0095 C.2       1 <0>        -0.1160
      2 C2         -1.3560    1.7543    0.0177 C.2       1 <0>         0.2980
      3 N1         -2.1006    0.6013    0.0148 N.pl3     1 <0>        -0.5807
      4 H1         -3.0689    0.5438    0.0183 H         1 <0>         0.4252
      5 C3         -1.2273   -0.4522    0.0051 C.2       1 <0>         0.5025
      6 N2          0.0021   -0.0041    0.0020 N.2       1 <0>        -0.4735
      7 N3         -1.5890   -1.7869   -0.0001 N.pl3     1 <0>        -0.8323
      8 N4         -1.6595    3.0578    0.0257 N.2       1 <0>        -0.5771
      9 C4         -0.7178    3.9744    0.0261 C.2       1 <0>         0.6477
     10 N5          0.6052    3.6466    0.0179 N.am      1 <0>        -0.6536
     11 H2          1.2761    4.3471    0.0185 H         1 <0>         0.4194
     12 C5          0.9865    2.3502    0.0053 C.2       1 <0>         0.5899
     13 O1          2.1677    2.0466   -0.0077 O.2       1 <0>        -0.5106
     14 N6         -1.0767    5.2999    0.0346 N.pl3     1 <0>        -0.8206
     15 H3         -2.5266   -2.0354    0.0031 H         1 <0>         0.4099
     16 H4         -0.9050   -2.4747   -0.0070 H         1 <0>         0.4262
     17 H5         -2.0143    5.5484    0.0401 H         1 <0>         0.4286
     18 H6         -0.3927    5.9876    0.0349 H         1 <0>         0.4171
@<TRIPOS>BOND
     1    1    6 1
     2    1   12 1
     3    1    2 2
     4    2    3 1
     5    2    8 1
     6    3    4 1
     7    3    5 1
     8    5    6 2
     9    5    7 1
    10    7   15 1
    11    7   16 1
    12    8    9 2
    13    9   10 1
    14    9   14 1
    15   10   11 1
    16   10   12 am
    17   12   13 2
    18   14   17 1
    19   14   18 1
@<TRIPOS>MOLECULE
ZINC13514984
   18    19     0     0     0
SMALL
USER_CHARGES

@<TRIPOS>ATOM
      1 C1         -0.0169    1.3964    0.0097 C.2       1 <0>        -0.2071
      2 C2         -1.2487    2.0609    0.0182 C.2       1 <0>         0.3751
      3 N1         -2.3857    1.3381    0.0191 N.2       1 <0>        -0.5555
      4 C3         -2.3522    0.0261    0.0121 C.2       1 <0>         0.6432
      5 N2         -1.1769   -0.6648    0.0037 N.am      1 <0>        -0.6526
      6 C4          0.0021   -0.0041    0.0020 C.2       1 <0>         0.5896
      7 O1          1.0592   -0.6138   -0.0109 O.2       1 <0>        -0.5447
      8 N3         -3.5352   -0.6709    0.0137 N.pl3     1 <0>        -0.8211
      9 N4         -0.9896    3.3782    0.0236 N.2       1 <0>        -0.5317
     10 C5          0.3097    3.5800    0.0191 C.2       1 <0>         0.5608
     11 N5          0.9587    2.3840    0.0057 N.pl3     1 <0>        -0.5678
     12 H1          1.9190    2.2476   -0.0037 H         1 <0>         0.4261
     13 N6          0.9204    4.8135    0.0219 N.pl3     1 <0>        -0.8220
     14 H2         -4.3795   -0.1934    0.0200 H         1 <0>         0.4302
     15 H3         -3.5266   -1.6408    0.0086 H         1 <0>         0.4154
     16 H4          0.3828    5.6208    0.0280 H         1 <0>         0.4288
     17 H5          1.8884    4.8754    0.0178 H         1 <0>         0.4144
     18 H6         -1.1870   -1.6348   -0.0014 H         1 <0>         0.4189
@<TRIPOS>BOND
     1    1    6 1
     2    1   11 1
     3    1    2 2
     4    2    3 1
     5    2    9 1
     6    3    4 2
     7    4    5 1
     8    4    8 1
     9    5    6 am
    10    5   18 1
    11    6    7 2
    12    8   14 1
    13    8   15 1
    14    9   10 2
    15   10   11 1
    16   10   13 1
    17   11   12 1
    18   13   16 1
    19   13   17 1
@<TRIPOS>MOLECULE
ZINC16958226
   31    33     0     0     0
SMALL
USER_CHARGES
2,8-diamino-9-benzyl-3H-purin-6-one
@<TRIPOS>ATOM
      1 C1          3.5026   -1.3571   -4.0676 C.ar      1 <0>        -0.1095
      2 C2          4.5401   -0.7108   -3.4218 C.ar      1 <0>        -0.1220
      3 C3          4.3847   -0.2890   -2.1146 C.ar      1 <0>        -0.0992
      4 C4          3.1917   -0.5136   -1.4532 C.ar      1 <0>        -0.1181
      5 C5          2.1562   -1.1645   -2.0971 C.ar      1 <0>        -0.0884
      6 C6          2.3098   -1.5816   -3.4060 C.ar      1 <0>        -0.1223
      7 C7          3.0225   -0.0541   -0.0279 C.3       1 <0>         0.1518
      8 N1          2.4899    1.3106   -0.0148 N.pl3     1 <0>        -0.4683
      9 C8          1.1706    1.6622   -0.0003 C.2       1 <0>         0.2850
     10 C9          1.1315    3.0494    0.0076 C.2       1 <0>        -0.1222
     11 C10        -0.1791    3.7037    0.0234 C.2       1 <0>         0.5869
     12 O1         -0.2678    4.9219    0.0305 O.2       1 <0>        -0.5152
     13 N2         -1.2804    2.9364    0.0297 N.am      1 <0>        -0.6482
     14 C11        -1.1995    1.6233    0.0163 C.2       1 <0>         0.6386
     15 N3         -0.0111    0.9658    0.0072 N.2       1 <0>        -0.5838
     16 H1         -2.2650    3.4266    0.0465 H         1 <0>         0.4427
     17 N4         -2.3577    0.8917    0.0113 N.pl3     1 <0>        -0.8490
     18 N5          2.4138    3.4942   -0.0022 N.2       1 <0>        -0.4868
     19 C12         3.2237    2.4651   -0.0155 C.2       1 <0>         0.5058
     20 N6          4.6053    2.5346   -0.0283 N.pl3     1 <0>        -0.8585
     21 H2          3.6243   -1.6870   -5.0888 H         1 <0>         0.1238
     22 H3          5.4721   -0.5357   -3.9385 H         1 <0>         0.1248
     23 H4          5.1953    0.2156   -1.6100 H         1 <0>         0.1191
     24 H5          1.2259   -1.3439   -1.5789 H         1 <0>         0.1281
     25 H6          1.4994   -2.0869   -3.9105 H         1 <0>         0.1242
     26 H7          2.3240   -0.7254    0.4932 H         1 <0>         0.1071
     27 H8          3.9973   -0.0722    0.4814 H         1 <0>         0.0969
     28 H9         -2.3139   -0.2074    0.0001 H         1 <0>         0.4514
     29 H10        -3.3315    1.4033    0.0185 H         1 <0>         0.4365
     30 H11         5.1068    3.5136   -0.0278 H         1 <0>         0.4477
     31 H12         5.2024    1.6108   -0.0390 H         1 <0>         0.4213
@<TRIPOS>BOND
     1    1    6 ar
     2    1    2 ar
     3    1   21 1
     4    2    3 ar
     5    2   22 1
     6    3    4 ar
     7    3   23 1
     8    4    5 ar
     9    4    7 1
    10    5    6 ar
    11    5   24 1
    12    6   25 1
    13    7   26 1
    14    7   27 1
    15    7    8 1
    16    8    9 1
    17    8   19 1
    18    9   15 1
    19    9   10 2
    20   10   18 1
    21   10   11 1
    22   11   13 am
    23   11   12 2
    24   13   16 1
    25   13   14 1
    26   14   17 1
    27   14   15 2
    28   17   29 1
    29   17   28 1
    30   18   19 2
    31   19   20 1
    32   20   30 1
    33   20   31 1
