@<TRIPOS>MOLECULE
ZINC14952759
   56    58     0     0     0
SMALL
USER_CHARGES

@<TRIPOS>ATOM
      1 C1         -0.4758    1.4574   -1.6124 C.3       1 <0>         0.0993
      2 N1         -0.4488   -0.0074   -1.6164 N.am      1 <0>        -0.7322
      3 C2          0.5695   -0.6641   -1.0263 C.2       1 <0>         0.5424
      4 O1          1.4634   -0.0426   -0.4920 O.2       1 <0>        -0.5311
      5 C3          0.5974   -2.1709   -1.0303 C.3       1 <0>         0.1258
      6 H1         -0.4170   -2.5586   -0.9369 H         1 <0>         0.0965
      7 C4          1.4525   -2.6752    0.1310 C.3       1 <0>        -0.0719
      8 C5          1.7567   -4.1422   -0.0245 C.ar      1 <0>        -0.1031
      9 C6          2.1395   -4.8437    1.1135 C.ar      1 <0>        -0.0942
     10 C7          2.4424   -6.1858    1.0435 C.ar      1 <0>        -0.1531
     11 C8          2.3662   -6.8471   -0.1761 C.ar      1 <0>         0.1949
     12 C9          1.9808   -6.1485   -1.3098 C.ar      1 <0>        -0.1443
     13 C10         1.6719   -4.7984   -1.2326 C.ar      1 <0>        -0.0848
     14 C11         1.2346   -4.1048   -2.4985 C.3       1 <0>         0.1524
     15 N2          1.2021   -2.6545   -2.2825 N.am      1 <0>        -0.6044
     16 C12         1.7067   -1.7989   -3.1935 C.2       1 <0>         0.5157
     17 O2          1.7576   -0.6123   -2.9479 O.2       1 <0>        -0.5114
     18 C13         2.2076   -2.3166   -4.5172 C.3       1 <0>        -0.1339
     19 C14         2.7238   -1.1482   -5.3594 C.3       1 <0>        -0.0554
     20 C15         3.2247   -1.6659   -6.6831 C.ar      1 <0>        -0.0731
     21 C16         4.5457   -2.0526   -6.8184 C.ar      1 <0>        -0.1469
     22 C17         5.0095   -2.5278   -8.0312 C.ar      1 <0>        -0.0955
     23 C18         4.1541   -2.6181   -9.1120 C.ar      1 <0>        -0.1631
     24 C19         2.8269   -2.2311   -8.9795 C.ar      1 <0>         0.1920
     25 C20         2.3629   -1.7590   -7.7579 C.ar      1 <0>        -0.1469
     26 N3          1.9592   -2.3211  -10.0703 N.pl3     1 <0>        -1.0870
     27 S1          1.9521   -3.6830  -11.0124 S.o2      1 <0>         2.7741
     28 O3          1.0440   -3.4262  -12.1194 O.2       1 <0>        -1.0817
     29 O4          3.3184   -3.8892  -11.4672 O.2       1 <0>        -1.0777
     30 O5          1.4886   -4.7758  -10.1716 O.3       1 <0>        -1.0754
     31 N4          2.6762   -8.2064   -0.2594 N.pl3     1 <0>        -1.0858
     32 S2          2.0863   -9.2612    0.8727 S.o2      1 <0>         2.7750
     33 O6          2.6750  -10.5603    0.5870 O.2       1 <0>        -1.0795
     34 O7          2.4930   -8.7547    2.1743 O.2       1 <0>        -1.0784
     35 O8          0.6394   -9.2755    0.7232 O.3       1 <0>        -1.0775
     36 H2         -0.4910    1.8177   -0.5838 H         1 <0>         0.0516
     37 H3          0.4115    1.8385   -2.1179 H         1 <0>         0.0603
     38 H4         -1.3681    1.8057   -2.1326 H         1 <0>         0.0663
     39 H5         -1.1637   -0.5045   -2.0437 H         1 <0>         0.3954
     40 H6          2.3878   -2.1160    0.1567 H         1 <0>         0.0918
     41 H7          0.9156   -2.5176    1.0664 H         1 <0>         0.0828
     42 H8          2.2003   -4.3310    2.0620 H         1 <0>         0.1221
     43 H9          2.7376   -6.7220    1.9333 H         1 <0>         0.1589
     44 H10         1.9211   -6.6588   -2.2598 H         1 <0>         0.1266
     45 H11         1.9359   -4.3368   -3.3000 H         1 <0>         0.1019
     46 H12         0.2393   -4.4515   -2.7768 H         1 <0>         0.0871
     47 H13         3.0165   -3.0270   -4.3469 H         1 <0>         0.0992
     48 H14         1.3931   -2.8129   -5.0449 H         1 <0>         0.1007
     49 H15         1.9148   -0.4378   -5.5297 H         1 <0>         0.0754
     50 H16         3.5382   -0.6519   -4.8317 H         1 <0>         0.0769
     51 H17         5.2165   -1.9830   -5.9749 H         1 <0>         0.1161
     52 H18         6.0417   -2.8282   -8.1336 H         1 <0>         0.1207
     53 H19         4.5171   -2.9890  -10.0591 H         1 <0>         0.1564
     54 H20         1.3304   -1.4610   -7.6504 H         1 <0>         0.1195
     55 H21         1.3609   -1.5859  -10.2761 H         1 <0>         0.4038
     56 H22         3.2371   -8.5326   -0.9805 H         1 <0>         0.4065
@<TRIPOS>BOND
     1    1    2 1
     2    1   36 1
     3    1   37 1
     4    1   38 1
     5    2    3 am
     6    2   39 1
     7    3    4 2
     8    3    5 1
     9    5    6 1
    10    5   15 1
    11    5    7 1
    12    7    8 1
    13    7   40 1
    14    7   41 1
    15    8   13 ar
    16    8    9 ar
    17    9   10 ar
    18    9   42 1
    19   10   11 ar
    20   10   43 1
    21   11   12 ar
    22   11   31 1
    23   12   13 ar
    24   12   44 1
    25   13   14 1
    26   14   15 1
    27   14   45 1
    28   14   46 1
    29   15   16 am
    30   16   17 2
    31   16   18 1
    32   18   19 1
    33   18   47 1
    34   18   48 1
    35   19   20 1
    36   19   49 1
    37   19   50 1
    38   20   25 ar
    39   20   21 ar
    40   21   22 ar
    41   21   51 1
    42   22   23 ar
    43   22   52 1
    44   23   24 ar
    45   23   53 1
    46   24   25 ar
    47   24   26 1
    48   25   54 1
    49   26   27 1
    50   26   55 1
    51   27   28 2
    52   27   29 2
    53   27   30 1
    54   31   32 1
    55   31   56 1
    56   32   33 2
    57   32   34 2
    58   32   35 1
@<TRIPOS>MOLECULE
ZINC26920345
   50    53     0     0     0
SMALL
USER_CHARGES
4-[[(5Z)-5-[(4-benzyloxyphenyl)methylene]-2,4-dioxo-thiazolidin-3-yl]methyl]benzoic acid
@<TRIPOS>ATOM
      1 C1          0.1606   -0.0659    0.0095 C.ar      1 <0>        -0.1091
      2 C2          1.4483   -0.4946   -0.2533 C.ar      1 <0>        -0.1238
      3 C3          2.4901    0.4139   -0.2666 C.ar      1 <0>        -0.0949
      4 C4          2.2450    1.7503   -0.0117 C.ar      1 <0>        -0.0979
      5 C5          0.9582    2.1781    0.2568 C.ar      1 <0>        -0.0942
      6 C6         -0.0836    1.2696    0.2695 C.ar      1 <0>        -0.1231
      7 C7          3.3807    2.7408   -0.0262 C.3       1 <0>         0.0959
      8 O1          3.5368    3.2673   -1.3454 O.3       1 <0>        -0.3034
      9 C8          4.5243    4.1801   -1.5319 C.ar      1 <0>         0.1554
     10 C9          5.3233    4.5644   -0.4612 C.ar      1 <0>        -0.2096
     11 C10         6.3292    5.4860   -0.6456 C.ar      1 <0>        -0.0453
     12 C11         6.5400    6.0444   -1.9124 C.ar      1 <0>        -0.1301
     13 C12         5.7287    5.6575   -2.9863 C.ar      1 <0>        -0.0372
     14 C13         4.7291    4.7312   -2.7916 C.ar      1 <0>        -0.1557
     15 C14         7.6081    7.0317   -2.1141 C.2       1 <0>         0.0694
     16 C15         8.2753    7.5374   -1.0459 C.2       1 <0>        -0.2115
     17 C16         9.4776    8.3934   -1.0063 C.2       1 <0>         0.5586
     18 O2         10.0350    8.7602   -2.0241 O.2       1 <0>        -0.4658
     19 N1          9.9180    8.7416    0.1910 N.am      1 <0>        -0.5701
     20 C17         9.2974    8.3329    1.3163 C.2       1 <0>         0.5375
     21 O3          9.5911    8.5752    2.4716 O.2       1 <0>        -0.4163
     22 S1          7.9353    7.3567    0.6998 S.3       1 <0>        -0.0588
     23 C18        11.1074    9.5903    0.2973 C.3       1 <0>         0.1388
     24 C19        10.6922   11.0390    0.2997 C.ar      1 <0>        -0.1351
     25 C20        10.5956   11.7297   -0.8953 C.ar      1 <0>        -0.1106
     26 C21        10.2106   13.0543   -0.9008 C.ar      1 <0>        -0.0828
     27 C22         9.9297   13.7013    0.3042 C.ar      1 <0>        -0.0987
     28 C23        10.0347   12.9999    1.5069 C.ar      1 <0>        -0.0912
     29 C24        10.4149   11.6739    1.4974 C.ar      1 <0>        -0.1141
     30 C25         9.5236   15.1217    0.3066 C.2       1 <0>         0.4872
     31 O4          9.2802   15.6820    1.3566 O.co2     1 <0>        -0.6293
     32 O5          9.4232   15.7955   -0.8555 O.co2     1 <0>        -0.7520
     33 H1         -0.6539   -0.7750    0.0155 H         1 <0>         0.1244
     34 H2          1.6397   -1.5386   -0.4527 H         1 <0>         0.1255
     35 H3          3.4954    0.0797   -0.4763 H         1 <0>         0.1247
     36 H4          0.7668    3.2221    0.4562 H         1 <0>         0.1255
     37 H5         -1.0890    1.6039    0.4789 H         1 <0>         0.1260
     38 H6          3.1604    3.5614    0.6724 H         1 <0>         0.0772
     39 H7          4.3098    2.2379    0.2802 H         1 <0>         0.0764
     40 H8          5.1572    4.1361    0.5163 H         1 <0>         0.1358
     41 H9          6.9521    5.7807    0.1860 H         1 <0>         0.1396
     42 H10         5.8871    6.0848   -3.9654 H         1 <0>         0.1423
     43 H11         4.1030    4.4319   -3.6191 H         1 <0>         0.1387
     44 H12         7.8674    7.3614   -3.1310 H         1 <0>         0.1676
     45 H13        11.6399    9.3599    1.2319 H         1 <0>         0.1034
     46 H14        11.7711    9.4005   -0.5592 H         1 <0>         0.1080
     47 H15        10.8181   11.2294   -1.8263 H         1 <0>         0.1223
     48 H16        10.1313   13.5911   -1.8346 H         1 <0>         0.1326
     49 H17         9.8185   13.4943    2.4425 H         1 <0>         0.1287
     50 H18        10.4965   11.1302    2.4270 H         1 <0>         0.1192
@<TRIPOS>BOND
     1    1    6 ar
     2    1    2 ar
     3    1   33 1
     4    2    3 ar
     5    2   34 1
     6    3    4 ar
     7    3   35 1
     8    4    5 ar
     9    4    7 1
    10    5    6 ar
    11    5   36 1
    12    6   37 1
    13    7    8 1
    14    7   38 1
    15    7   39 1
    16    8    9 1
    17    9   14 ar
    18    9   10 ar
    19   10   11 ar
    20   10   40 1
    21   11   12 ar
    22   11   41 1
    23   12   13 ar
    24   12   15 1
    25   13   14 ar
    26   13   42 1
    27   14   43 1
    28   15   16 2
    29   15   44 1
    30   16   22 1
    31   16   17 1
    32   17   18 2
    33   17   19 am
    34   19   20 am
    35   19   23 1
    36   20   21 2
    37   20   22 1
    38   23   24 1
    39   23   45 1
    40   23   46 1
    41   24   29 ar
    42   24   25 ar
    43   25   26 ar
    44   25   47 1
    45   26   27 ar
    46   26   48 1
    47   27   28 ar
    48   27   30 1
    49   28   29 ar
    50   28   49 1
    51   29   50 1
    52   30   31 2
    53   30   32 1
@<TRIPOS>MOLECULE
ZINC13541343
   41    43     0     0     0
SMALL
USER_CHARGES
4-[[(5Z)-5-[(4-hydroxy-3-methoxy-phenyl)methylene]-2,4-dioxo-thiazolidin-3-yl]methyl]benzoic acid
@<TRIPOS>ATOM
      1 C1         -1.9661    4.6018   -1.8637 C.3       1 <0>         0.0182
      2 O1         -1.4215    5.8257   -1.3661 O.3       1 <0>        -0.3039
      3 C2         -0.1933    5.7640   -0.7853 C.ar      1 <0>         0.1072
      4 C3          0.4712    4.5562   -0.7028 C.ar      1 <0>        -0.1694
      5 C4          1.7335    4.4958   -0.0998 C.ar      1 <0>        -0.0599
      6 C5          2.3193    5.6627    0.4062 C.ar      1 <0>        -0.0996
      7 C6          1.6510    6.8637    0.3145 C.ar      1 <0>        -0.1113
      8 C7          0.3969    6.9212   -0.2786 C.ar      1 <0>         0.0977
      9 O2         -0.2571    8.1087   -0.3659 O.3       1 <0>        -0.4847
     10 C8          2.4432    3.2139   -0.0036 C.2       1 <0>         0.0621
     11 C9          1.8089    2.0606   -0.3344 C.2       1 <0>        -0.1965
     12 C10         2.3494    0.6927   -0.4630 C.2       1 <0>         0.5586
     13 O3          3.5255    0.4489   -0.2664 O.2       1 <0>        -0.4616
     14 N1          1.4912   -0.2541   -0.8033 N.am      1 <0>        -0.5699
     15 C11         0.1888    0.0203   -1.0201 C.2       1 <0>         0.5393
     16 O4         -0.7022   -0.7453   -1.3356 O.2       1 <0>        -0.4114
     17 S1          0.0891    1.7799   -0.7331 S.3       1 <0>        -0.0649
     18 C12         1.9660   -1.6325   -0.9475 C.3       1 <0>         0.1414
     19 C13         2.4084   -1.8653   -2.3691 C.ar      1 <0>        -0.1370
     20 C14         1.5014   -2.3295   -3.3053 C.ar      1 <0>        -0.1148
     21 C15         1.8983   -2.5393   -4.6097 C.ar      1 <0>        -0.0822
     22 C16         3.2212   -2.2926   -4.9818 C.ar      1 <0>        -0.0979
     23 C17         4.1326   -1.8298   -4.0306 C.ar      1 <0>        -0.0917
     24 C18         3.7211   -1.6193   -2.7309 C.ar      1 <0>        -0.1097
     25 C19         3.6549   -2.5208   -6.3754 C.2       1 <0>         0.4869
     26 O5          4.8066   -2.3057   -6.6961 O.co2     1 <0>        -0.6288
     27 H1         -1.3024    4.1917   -2.6249 H         1 <0>         0.0613
     28 H2         -2.0646    3.8887   -1.0452 H         1 <0>         0.0596
     29 H3         -2.9465    4.7914   -2.3004 H         1 <0>         0.1068
     30 H4          0.0168    3.6600   -1.0987 H         1 <0>         0.1476
     31 H5          3.2946    5.6209    0.8684 H         1 <0>         0.1416
     32 H6          2.1039    7.7631    0.7048 H         1 <0>         0.1444
     33 H7         -0.0686    8.6029   -1.1754 H         1 <0>         0.3916
     34 H8          3.4700    3.1889    0.3303 H         1 <0>         0.1678
     35 H9          2.8062   -1.7998   -0.2735 H         1 <0>         0.1074
     36 H10         1.1591   -2.3225   -0.7004 H         1 <0>         0.1034
     37 H11         0.4795   -2.5240   -3.0151 H         1 <0>         0.1196
     38 H12         1.1883   -2.8974   -5.3405 H         1 <0>         0.1329
     39 H13         5.1575   -1.6373   -4.3117 H         1 <0>         0.1291
     40 H14         4.4250   -1.2613   -1.9942 H         1 <0>         0.1223
     41 O6          2.7731   -2.9675   -7.2907 O.co2     1 <0>        -0.7517
@<TRIPOS>BOND
     1    1    2 1
     2    1   27 1
     3    1   28 1
     4    1   29 1
     5    2    3 1
     6    3    8 ar
     7    3    4 ar
     8    4    5 ar
     9    4   30 1
    10    5    6 ar
    11    5   10 1
    12    6    7 ar
    13    6   31 1
    14    7    8 ar
    15    7   32 1
    16    8    9 1
    17    9   33 1
    18   10   11 2
    19   10   34 1
    20   11   17 1
    21   11   12 1
    22   12   13 2
    23   12   14 am
    24   14   15 am
    25   14   18 1
    26   15   16 2
    27   15   17 1
    28   18   19 1
    29   18   35 1
    30   18   36 1
    31   19   24 ar
    32   19   20 ar
    33   20   21 ar
    34   20   37 1
    35   21   22 ar
    36   21   38 1
    37   22   23 ar
    38   22   25 1
    39   23   24 ar
    40   23   39 1
    41   24   40 1
    42   25   26 2
    43   25   41 1
