@<TRIPOS>MOLECULE
ZINC01530886
   68    73     0     0     0
SMALL
USER_CHARGES

@<TRIPOS>ATOM
      1 C1          0.5194    0.5989   -0.6499 C.3       1 <0>        -0.1519
      2 C2          0.5553   -0.9228   -0.4944 C.3       1 <0>        -0.1180
      3 C3         -0.8744   -1.4676   -0.4781 C.3       1 <0>        -0.0509
      4 C4         -0.8390   -2.9664   -0.3250 C.2       1 <0>         0.2998
      5 N1         -0.7870   -3.8153   -1.3104 N.2       1 <0>        -0.4956
      6 C5         -0.7679   -5.0811   -0.8228 C.ar      1 <0>         0.0676
      7 C6         -0.7166   -6.3432   -1.4255 C.ar      1 <0>        -0.0329
      8 C7         -0.7106   -7.4677   -0.6561 C.ar      1 <0>        -0.1279
      9 C8         -0.7553   -7.3741    0.7409 C.ar      1 <0>        -0.0241
     10 C9         -0.8066   -6.1262    1.3568 C.ar      1 <0>        -0.0473
     11 C10        -0.8125   -4.9799    0.5794 C.ar      1 <0>         0.0513
     12 N2         -0.8510   -3.6282    0.8627 N.pl3     1 <0>        -0.4696
     13 C11        -0.8997   -3.0209    2.1950 C.3       1 <0>         0.1532
     14 C12        -2.3363   -2.8503    2.6171 C.ar      1 <0>        -0.1289
     15 C13        -3.0114   -1.6833    2.3071 C.ar      1 <0>        -0.1160
     16 C14        -4.3269   -1.5212    2.6909 C.ar      1 <0>        -0.1152
     17 C15        -4.9758   -2.5369    3.3923 C.ar      1 <0>         0.0068
     18 C16        -4.2901   -3.7111    3.7015 C.ar      1 <0>        -0.0185
     19 C17        -2.9763   -3.8635    3.3081 C.ar      1 <0>        -0.1063
     20 C18        -6.3880   -2.3689    3.8077 C.ar      1 <0>        -0.0330
     21 C19        -7.3736   -2.1235    2.8559 C.ar      1 <0>        -0.1240
     22 C20        -8.6883   -1.9680    3.2469 C.ar      1 <0>        -0.1295
     23 C21        -9.0381   -2.0543    4.5848 C.ar      1 <0>        -0.1359
     24 C22        -8.0772   -2.2963    5.5435 C.ar      1 <0>        -0.0877
     25 C23        -6.7424   -2.4622    5.1668 C.ar      1 <0>        -0.1204
     26 C24        -5.7120   -2.7270    6.1853 C.2       1 <0>         0.5154
     27 O1         -6.0382   -2.9345    7.3459 O.co2     1 <0>        -0.6857
     28 O2         -4.5299   -2.7394    5.8706 O.co2     1 <0>        -0.6646
     29 C25        -0.7486   -8.6023    1.5628 C.2       1 <0>         0.3358
     30 N3         -0.4281   -8.6582    2.8328 N.2       1 <0>        -0.4807
     31 C26        -0.5296   -9.9362    3.2723 C.ar      1 <0>         0.0523
     32 C27        -0.3102  -10.5463    4.5117 C.ar      1 <0>        -0.0617
     33 C28        -0.5006  -11.8916    4.6514 C.ar      1 <0>        -0.1297
     34 C29        -0.9109  -12.6642    3.5740 C.ar      1 <0>        -0.1036
     35 C30        -1.1335  -12.0847    2.3426 C.ar      1 <0>        -0.1118
     36 C31        -0.9454  -10.7191    2.1808 C.ar      1 <0>         0.0484
     37 N4         -1.0820   -9.8522    1.1139 N.pl3     1 <0>        -0.4885
     38 C32        -1.5019  -10.2047   -0.2446 C.3       1 <0>         0.0713
     39 C33        -0.6687   -6.4586   -2.9273 C.3       1 <0>        -0.1058
     40 H1          1.5379    0.9870   -0.6615 H         1 <0>         0.0575
     41 H2          0.0215    0.8570   -1.5845 H         1 <0>         0.0578
     42 H3         -0.0268    1.0367    0.1857 H         1 <0>         0.0577
     43 H4          1.1014   -1.3606   -1.3299 H         1 <0>         0.0708
     44 H5          1.0531   -1.1809    0.4403 H         1 <0>         0.0625
     45 H6         -1.4205   -1.0298    0.3574 H         1 <0>         0.0902
     46 H7         -1.3722   -1.2095   -1.4128 H         1 <0>         0.1007
     47 H8         -0.6713   -8.4388   -1.1270 H         1 <0>         0.1329
     48 H9         -0.8418   -6.0527    2.4337 H         1 <0>         0.1368
     49 H10        -0.3859   -3.6663    2.9074 H         1 <0>         0.0990
     50 H11        -0.4106   -2.0472    2.1685 H         1 <0>         0.1003
     51 H12        -2.5078   -0.8974    1.7638 H         1 <0>         0.1128
     52 H13        -4.8527   -0.6094    2.4489 H         1 <0>         0.1151
     53 H14        -4.7874   -4.5011    4.2447 H         1 <0>         0.1134
     54 H15        -2.4453   -4.7740    3.5437 H         1 <0>         0.1119
     55 H16        -7.1095   -2.0544    1.8109 H         1 <0>         0.1154
     56 H17        -9.4495   -1.7774    2.5049 H         1 <0>         0.1144
     57 H18       -10.0700   -1.9309    4.8786 H         1 <0>         0.1146
     58 H19        -8.3570   -2.3619    6.5846 H         1 <0>         0.1273
     59 H20         0.0096   -9.9547    5.3568 H         1 <0>         0.1303
     60 H21        -0.3297  -12.3590    5.6099 H         1 <0>         0.1288
     61 H22        -1.0566  -13.7268    3.7008 H         1 <0>         0.1284
     62 H23        -1.4530  -12.6908    1.5078 H         1 <0>         0.1201
     63 H24        -0.6216  -10.3622   -0.8677 H         1 <0>         0.0777
     64 H25        -2.0950  -11.1188   -0.2158 H         1 <0>         0.0857
     65 H26        -2.1017   -9.3954   -0.6610 H         1 <0>         0.0949
     66 H27         0.3698   -6.4595   -3.2587 H         1 <0>         0.0698
     67 H28        -1.1493   -7.3870   -3.2359 H         1 <0>         0.0633
     68 H29        -1.1918   -5.6129   -3.3737 H         1 <0>         0.0739
@<TRIPOS>BOND
     1    1    2 1
     2    1   40 1
     3    1   41 1
     4    1   42 1
     5    2    3 1
     6    2   43 1
     7    2   44 1
     8    3    4 1
     9    3   45 1
    10    3   46 1
    11    4   12 1
    12    4    5 2
    13    5    6 1
    14    6   11 ar
    15    6    7 ar
    16    7    8 ar
    17    7   39 1
    18    8    9 ar
    19    8   47 1
    20    9   10 ar
    21    9   29 1
    22   10   11 ar
    23   10   48 1
    24   11   12 1
    25   12   13 1
    26   13   14 1
    27   13   49 1
    28   13   50 1
    29   14   19 ar
    30   14   15 ar
    31   15   16 ar
    32   15   51 1
    33   16   17 ar
    34   16   52 1
    35   17   18 ar
    36   17   20 1
    37   18   19 ar
    38   18   53 1
    39   19   54 1
    40   20   25 ar
    41   20   21 ar
    42   21   22 ar
    43   21   55 1
    44   22   23 ar
    45   22   56 1
    46   23   24 ar
    47   23   57 1
    48   24   25 ar
    49   24   58 1
    50   25   26 1
    51   26   27 2
    52   26   28 1
    53   29   37 1
    54   29   30 2
    55   30   31 1
    56   31   36 ar
    57   31   32 ar
    58   32   33 ar
    59   32   59 1
    60   33   34 ar
    61   33   60 1
    62   34   35 ar
    63   34   61 1
    64   35   36 ar
    65   35   62 1
    66   36   37 1
    67   37   38 1
    68   38   63 1
    69   38   64 1
    70   38   65 1
    71   39   66 1
    72   39   67 1
    73   39   68 1
@<TRIPOS>MOLECULE
ZINC01530886
   69    74     0     0     0
SMALL
USER_CHARGES

@<TRIPOS>ATOM
      1 C1          0.8671    1.5147   -0.8610 C.3       1 <0>        -0.1543
      2 C2          0.6450    0.0015   -0.8215 C.3       1 <0>        -0.1168
      3 C3          1.1107   -0.6170   -2.1411 C.3       1 <0>        -0.0598
      4 C4          0.8919   -2.1076   -2.1021 C.2       1 <0>         0.3306
      5 N1          1.7590   -2.9772   -1.6704 N.2       1 <0>        -0.4921
      6 C5          1.2430   -4.2276   -1.7744 C.ar      1 <0>         0.1019
      7 C6          1.7352   -5.5000   -1.4624 C.ar      1 <0>        -0.0150
      8 C7          0.9663   -6.6028   -1.6841 C.ar      1 <0>        -0.1017
      9 C8         -0.3199   -6.4765   -2.2244 C.ar      1 <0>        -0.1051
     10 C9         -0.8250   -5.2178   -2.5404 C.ar      1 <0>        -0.0358
     11 C10        -0.0479   -4.0934   -2.3167 C.ar      1 <0>         0.0437
     12 N2         -0.2420   -2.7389   -2.5073 N.pl3     1 <0>        -0.4663
     13 C11        -1.4448   -2.1016   -3.0490 C.3       1 <0>         0.1517
     14 C12        -1.3258   -1.9959   -4.5475 C.ar      1 <0>        -0.1396
     15 C13        -0.7488   -0.8741   -5.1154 C.ar      1 <0>        -0.1110
     16 C14        -0.6370   -0.7717   -6.4869 C.ar      1 <0>        -0.1121
     17 C15        -1.1068   -1.8020   -7.3009 C.ar      1 <0>         0.0196
     18 C16        -1.6871   -2.9305   -6.7225 C.ar      1 <0>        -0.0192
     19 C17        -1.7889   -3.0236   -5.3496 C.ar      1 <0>        -0.1121
     20 C18        -0.9903   -1.6979   -8.7742 C.ar      1 <0>        -0.0427
     21 C19         0.2575   -1.5306   -9.3680 C.ar      1 <0>        -0.1228
     22 C20         0.3619   -1.4345  -10.7410 C.ar      1 <0>        -0.1274
     23 C21        -0.7694   -1.5033  -11.5381 C.ar      1 <0>        -0.1308
     24 C22        -2.0148   -1.6684  -10.9700 C.ar      1 <0>        -0.0866
     25 C23        -2.1401   -1.7734   -9.5828 C.ar      1 <0>        -0.1205
     26 C24        -3.4669   -1.9560   -8.9699 C.2       1 <0>         0.5167
     27 O1         -4.4464   -2.1471   -9.6773 O.co2     1 <0>        -0.6806
     28 O2         -3.5893   -1.9165   -7.7534 O.co2     1 <0>        -0.6712
     29 C25        -1.1424   -7.6815   -2.4598 C.cat     1 <0>         0.4619
     30 N3         -0.6817   -8.8439   -2.8541 N.pl3     1 <0>        -0.4949
     31 C26        -1.7055   -9.7243   -2.9693 C.ar      1 <0>         0.0520
     32 C27        -1.7782  -11.0697   -3.3451 C.ar      1 <0>        -0.0785
     33 C28        -2.9866  -11.7062   -3.3662 C.ar      1 <0>        -0.0821
     34 C29        -4.1483  -11.0317   -3.0178 C.ar      1 <0>        -0.0706
     35 C30        -4.1012   -9.7052   -2.6440 C.ar      1 <0>        -0.0876
     36 C31        -2.8828   -9.0410   -2.6163 C.ar      1 <0>         0.0794
     37 N4         -2.4995   -7.7537   -2.2933 N.pl3     1 <0>        -0.4316
     38 C32        -3.3809   -6.6677   -1.8572 C.3       1 <0>         0.0561
     39 C33         3.1174   -5.6507   -0.8811 C.3       1 <0>        -0.1156
     40 H1          1.9273    1.7227   -1.0056 H         1 <0>         0.0607
     41 H2          0.2970    1.9442   -1.6848 H         1 <0>         0.0597
     42 H3          0.5353    1.9554    0.0791 H         1 <0>         0.0614
     43 H4          1.2151   -0.4280    0.0023 H         1 <0>         0.0727
     44 H5         -0.4152   -0.2065   -0.6769 H         1 <0>         0.0627
     45 H6          0.5406   -0.1875   -2.9649 H         1 <0>         0.0961
     46 H7          2.1709   -0.4091   -2.2856 H         1 <0>         0.1088
     47 H8          1.3517   -7.5821   -1.4417 H         1 <0>         0.1367
     48 H9         -1.8163   -5.1191   -2.9577 H         1 <0>         0.1352
     49 H10        -2.3192   -2.7009   -2.7953 H         1 <0>         0.0980
     50 H11        -1.5514   -1.1045   -2.6218 H         1 <0>         0.1081
     51 H12        -0.3853   -0.0769   -4.4840 H         1 <0>         0.1154
     52 H13        -0.1870    0.1049   -6.9292 H         1 <0>         0.1197
     53 H14        -2.0530   -3.7314   -7.3478 H         1 <0>         0.1141
     54 H15        -2.2348   -3.8987   -4.9003 H         1 <0>         0.1020
     55 H16         1.1443   -1.4755   -8.7541 H         1 <0>         0.1155
     56 H17         1.3321   -1.3043  -11.1972 H         1 <0>         0.1170
     57 H18        -0.6751   -1.4269  -12.6113 H         1 <0>         0.1176
     58 H19        -2.8923   -1.7209  -11.5974 H         1 <0>         0.1292
     59 H20        -0.8805  -11.6042   -3.6185 H         1 <0>         0.1511
     60 H21        -3.0385  -12.7449   -3.6573 H         1 <0>         0.1542
     61 H22        -5.0960  -11.5493   -3.0400 H         1 <0>         0.1547
     62 H23        -5.0084   -9.1854   -2.3736 H         1 <0>         0.1505
     63 H24        -3.6630   -6.0610   -2.7176 H         1 <0>         0.1079
     64 H25        -4.2765   -7.0882   -1.3998 H         1 <0>         0.1168
     65 H26        -2.8590   -6.0461   -1.1297 H         1 <0>         0.1122
     66 H27         3.0611   -5.6054    0.2065 H         1 <0>         0.0797
     67 H28         3.5361   -6.6105   -1.1836 H         1 <0>         0.0715
     68 H29         3.7547   -4.8451   -1.2458 H         1 <0>         0.0823
     69 H30         0.2500   -9.0432   -3.0360 H         1 <0>         0.4596
@<TRIPOS>BOND
     1    1    2 1
     2    1   40 1
     3    1   41 1
     4    1   42 1
     5    2    3 1
     6    2   43 1
     7    2   44 1
     8    3    4 1
     9    3   45 1
    10    3   46 1
    11    4   12 1
    12    4    5 2
    13    5    6 1
    14    6   11 ar
    15    6    7 ar
    16    7    8 ar
    17    7   39 1
    18    8    9 ar
    19    8   47 1
    20    9   10 ar
    21    9   29 1
    22   10   11 ar
    23   10   48 1
    24   11   12 1
    25   12   13 1
    26   13   14 1
    27   13   49 1
    28   13   50 1
    29   14   19 ar
    30   14   15 ar
    31   15   16 ar
    32   15   51 1
    33   16   17 ar
    34   16   52 1
    35   17   18 ar
    36   17   20 1
    37   18   19 ar
    38   18   53 1
    39   19   54 1
    40   20   25 ar
    41   20   21 ar
    42   21   22 ar
    43   21   55 1
    44   22   23 ar
    45   22   56 1
    46   23   24 ar
    47   23   57 1
    48   24   25 ar
    49   24   58 1
    50   25   26 1
    51   26   27 2
    52   26   28 1
    53   29   37 1
    54   29   30 2
    55   30   31 1
    56   30   69 1
    57   31   36 ar
    58   31   32 ar
    59   32   33 ar
    60   32   59 1
    61   33   34 ar
    62   33   60 1
    63   34   35 ar
    64   34   61 1
    65   35   36 ar
    66   35   62 1
    67   36   37 1
    68   37   38 1
    69   38   63 1
    70   38   64 1
    71   38   65 1
    72   39   66 1
    73   39   67 1
    74   39   68 1
@<TRIPOS>MOLECULE
ZINC32694331
   46    48     0     0     0
SMALL
USER_CHARGES
3-[(5E)-4-oxo-5-[[2-(p-tolylmethoxy)phenyl]methylene]-2-thioxo-thiazolidin-3-yl]propanoic acid
@<TRIPOS>ATOM
      1 C1        -12.0453   -4.1386   -3.0092 C.3       1 <0>        -0.1201
      2 C2        -10.7407   -3.6424   -3.5774 C.ar      1 <0>        -0.0746
      3 C3        -10.5283   -2.2860   -3.7383 C.ar      1 <0>        -0.1230
      4 C4         -9.3313   -1.8308   -4.2587 C.ar      1 <0>        -0.0886
      5 C5         -8.3464   -2.7319   -4.6177 C.ar      1 <0>        -0.1039
      6 C6         -8.5609   -4.0886   -4.4617 C.ar      1 <0>        -0.0904
      7 C7         -9.7562   -4.5436   -3.9373 C.ar      1 <0>        -0.1258
      8 C8         -7.0415   -2.2357   -5.1850 C.3       1 <0>         0.0999
      9 O1         -6.1142   -2.0115   -4.1211 O.3       1 <0>        -0.3045
     10 C9         -4.8810   -1.5596   -4.4635 C.ar      1 <0>         0.1650
     11 C10        -4.5663   -1.3358   -5.7940 C.ar      1 <0>        -0.2221
     12 C11        -3.3103   -0.8765   -6.1417 C.ar      1 <0>        -0.0525
     13 C12        -2.3561   -0.6354   -5.1664 C.ar      1 <0>        -0.1613
     14 C13        -2.6513   -0.8461   -3.8374 C.ar      1 <0>        -0.0066
     15 C14        -3.9176   -1.3168   -3.4706 C.ar      1 <0>        -0.1278
     16 C15        -4.2385   -1.5493   -2.0573 C.2       1 <0>         0.0979
     17 C16        -3.8342   -0.6603   -1.1143 C.2       1 <0>        -0.2405
     18 C17        -3.2026    0.6641   -1.2786 C.2       1 <0>         0.5343
     19 O2         -2.9626    1.1259   -2.3789 O.2       1 <0>        -0.4427
     20 N1         -2.9113    1.3234   -0.1700 N.am      1 <0>        -0.5162
     21 C18        -3.1743    0.8060    1.0473 C.2       1 <0>         0.2912
     22 S1         -2.8688    1.4954    2.5843 S.2       1 <0>        -0.3360
     23 S2         -3.9212   -0.7709    0.6678 S.3       1 <0>         0.0389
     24 C19        -2.2831    2.6434   -0.2662 C.3       1 <0>         0.0991
     25 C20        -3.3674    3.7212   -0.3249 C.3       1 <0>        -0.1673
     26 C21        -2.7212    5.0790   -0.4239 C.2       1 <0>         0.4736
     27 O3         -1.5170    5.1749   -0.4453 O.co2     1 <0>        -0.6362
     28 O4         -3.4835    6.1820   -0.4884 O.co2     1 <0>        -0.7644
     29 H1        -12.6972   -3.2814   -2.7850 H         1 <0>         0.0670
     30 H2        -11.8516   -4.7035   -2.0854 H         1 <0>         0.0721
     31 H3        -12.5393   -4.7930   -3.7425 H         1 <0>         0.0709
     32 H4        -11.2974   -1.5818   -3.4572 H         1 <0>         0.1256
     33 H5         -9.1653   -0.7710   -4.3845 H         1 <0>         0.1256
     34 H6         -7.7932   -4.7929   -4.7463 H         1 <0>         0.1243
     35 H7         -9.9220   -5.6033   -3.8112 H         1 <0>         0.1244
     36 H8         -6.6324   -2.9878   -5.8756 H         1 <0>         0.0748
     37 H9         -7.2119   -1.2940   -5.7274 H         1 <0>         0.0750
     38 H10        -5.3039   -1.5211   -6.5609 H         1 <0>         0.1316
     39 H11        -3.0709   -0.7040   -7.1806 H         1 <0>         0.1281
     40 H12        -1.3775   -0.2765   -5.4492 H         1 <0>         0.1292
     41 H13        -1.9058   -0.6525   -3.0803 H         1 <0>         0.1292
     42 H14        -4.8066   -2.4439   -1.7622 H         1 <0>         0.1599
     43 H15        -1.6463    2.8115    0.6149 H         1 <0>         0.1168
     44 H16        -1.6686    2.6915   -1.1773 H         1 <0>         0.1069
     45 H17        -4.0042    3.5531   -1.2059 H         1 <0>         0.0680
     46 H18        -3.9819    3.6731    0.5862 H         1 <0>         0.0749
@<TRIPOS>BOND
     1    1    2 1
     2    1   29 1
     3    1   30 1
     4    1   31 1
     5    2    7 ar
     6    2    3 ar
     7    3    4 ar
     8    3   32 1
     9    4    5 ar
    10    4   33 1
    11    5    6 ar
    12    5    8 1
    13    6    7 ar
    14    6   34 1
    15    7   35 1
    16    8    9 1
    17    8   36 1
    18    8   37 1
    19    9   10 1
    20   10   15 ar
    21   10   11 ar
    22   11   12 ar
    23   11   38 1
    24   12   13 ar
    25   12   39 1
    26   13   14 ar
    27   13   40 1
    28   14   15 ar
    29   14   41 1
    30   15   16 1
    31   16   17 2
    32   16   42 1
    33   17   23 1
    34   17   18 1
    35   18   19 2
    36   18   20 am
    37   20   21 1
    38   20   24 1
    39   21   22 2
    40   21   23 1
    41   24   25 1
    42   24   43 1
    43   24   44 1
    44   25   26 1
    45   25   45 1
    46   25   46 1
    47   26   27 2
    48   26   28 1
@<TRIPOS>MOLECULE
ZINC00966930
   29    30     0     0     0
SMALL
USER_CHARGES
3-[5-[(2,4-dichlorophenyl)methylene]-4-oxo-2-thioxo-thiazolidin-3-yl]propanoic acid
@<TRIPOS>ATOM
      1 C1         -2.2127   -1.1800   -5.1876 C.ar      1 <0>        -0.1081
      2 C2         -2.5463   -1.4254   -3.8731 C.ar      1 <0>        -0.0242
      3 C3         -3.8741   -1.2852   -3.4537 C.ar      1 <0>        -0.0770
      4 C4         -4.8526   -0.8846   -4.3729 C.ar      1 <0>         0.0042
      5 C5         -4.5014   -0.6373   -5.6839 C.ar      1 <0>        -0.1123
      6 C6         -3.1856   -0.7842   -6.0914 C.ar      1 <0>        -0.0033
      7 Cl1        -2.7531   -0.4701   -7.7430 Cl        1 <0>        -0.0523
      8 Cl2        -6.5018   -0.6996   -3.8636 Cl        1 <0>        -0.0473
      9 C7         -4.2389   -1.5508   -2.0556 C.2       1 <0>         0.0673
     10 C8         -3.4356   -1.1188   -1.0511 C.2       1 <0>        -0.2157
     11 C9         -2.2437   -0.2474   -1.1067 C.2       1 <0>         0.5329
     12 O1         -1.8325    0.2074   -2.1579 O.2       1 <0>        -0.4394
     13 N1         -1.6468    0.0134    0.0441 N.am      1 <0>        -0.5163
     14 C10        -2.1031   -0.4965    1.2061 C.2       1 <0>         0.2849
     15 S1         -1.4704   -0.2818    2.7824 S.2       1 <0>        -0.3156
     16 S2         -3.5284   -1.4474    0.7036 S.3       1 <0>         0.0475
     17 C11        -0.4591    0.8710    0.0562 C.3       1 <0>         0.1011
     18 C12        -0.8852    2.3298    0.2329 C.3       1 <0>        -0.1676
     19 C13         0.3365    3.2120    0.2454 C.2       1 <0>         0.4732
     20 O2          1.4353    2.7240    0.1252 O.co2     1 <0>        -0.6360
     21 H1         -1.1891   -1.2922   -5.5133 H         1 <0>         0.1460
     22 H2         -1.7855   -1.7291   -3.1692 H         1 <0>         0.1422
     23 H3         -5.2542   -0.3288   -6.3942 H         1 <0>         0.1491
     24 H4         -5.1464   -2.0900   -1.8274 H         1 <0>         0.1627
     25 H5          0.0781    0.7610   -0.8858 H         1 <0>         0.1069
     26 H6          0.1909    0.5799    0.8813 H         1 <0>         0.1165
     27 H7         -1.5352    2.6210   -0.5922 H         1 <0>         0.0684
     28 H8         -1.4224    2.4398    1.1750 H         1 <0>         0.0749
     29 O3          0.2040    4.5399    0.3899 O.co2     1 <0>        -0.7627
@<TRIPOS>BOND
     1    1    6 ar
     2    1    2 ar
     3    1   21 1
     4    2    3 ar
     5    2   22 1
     6    3    4 ar
     7    3    9 1
     8    4    5 ar
     9    4    8 1
    10    5    6 ar
    11    5   23 1
    12    6    7 1
    13    9   10 2
    14    9   24 1
    15   10   16 1
    16   10   11 1
    17   11   12 2
    18   11   13 am
    19   13   14 1
    20   13   17 1
    21   14   15 2
    22   14   16 1
    23   17   18 1
    24   17   25 1
    25   17   26 1
    26   18   19 1
    27   18   27 1
    28   18   28 1
    29   19   20 2
    30   19   29 1
@<TRIPOS>MOLECULE
ZINC49583060
   34    36     0     0     0
SMALL
USER_CHARGES

@<TRIPOS>ATOM
      1 C1         -0.1909    1.9641    0.4769 C.ar      1 <0>        -0.0634
      2 C2          1.0466    2.5746    0.3971 C.ar      1 <0>        -0.1563
      3 C3          2.1920    1.8052    0.2830 C.ar      1 <0>         0.1386
      4 C4          2.0968    0.4243    0.2489 C.ar      1 <0>        -0.1578
      5 C5          0.8578   -0.1848    0.3288 C.ar      1 <0>         0.0013
      6 C6         -0.2860    0.5858    0.4428 C.ar      1 <0>        -0.1263
      7 Cl1         0.7373   -1.9161    0.2862 Cl        1 <0>        -0.0227
      8 C7          3.3426   -0.4145    0.1242 C.3       1 <0>         0.1347
      9 N1          3.8561   -0.7278    1.4600 N.am      1 <0>        -0.5722
     10 C8          4.7215    0.0945    2.0288 C.2       1 <0>         0.5515
     11 O1          5.1032    1.1067    1.4714 O.2       1 <0>        -0.4473
     12 C9          5.2010   -0.2779    3.3757 C.2       1 <0>        -0.1944
     13 C10         6.0767    0.3628    4.1897 C.2       1 <0>         0.0610
     14 C11         6.2659   -0.0969    5.5722 C.ar      1 <0>        -0.0780
     15 C12         5.3140   -0.9285    6.1736 C.ar      1 <0>        -0.0698
     16 C13         5.4982   -1.3556    7.4705 C.ar      1 <0>        -0.1012
     17 C14         6.6224   -0.9638    8.1805 C.ar      1 <0>        -0.0042
     18 C15         7.5693   -0.1413    7.5936 C.ar      1 <0>        -0.1037
     19 C16         7.4026    0.2900    6.2934 C.ar      1 <0>         0.0058
     20 Cl2         8.5940    1.3152    5.5565 Cl        1 <0>        -0.0362
     21 Cl3         6.8441   -1.5068    9.8145 Cl        1 <0>        -0.0424
     22 S1          4.3097   -1.8052    3.6377 S.3       1 <0>        -0.0496
     23 C17         3.4312   -1.8454    2.0838 C.2       1 <0>         0.5361
     24 O2          2.6417   -2.6798    1.6838 O.2       1 <0>        -0.3930
     25 F1          3.4017    2.4014    0.2045 F         1 <0>        -0.1117
     26 H1         -1.0838    2.5645    0.5704 H         1 <0>         0.1468
     27 H2          1.1201    3.6517    0.4234 H         1 <0>         0.1462
     28 H3         -1.2534    0.1098    0.5052 H         1 <0>         0.1446
     29 H4          3.1064   -1.3401   -0.4006 H         1 <0>         0.1180
     30 H5          4.0979    0.1377   -0.4351 H         1 <0>         0.1179
     31 H6          6.6349    1.2109    3.8214 H         1 <0>         0.1684
     32 H7          4.4370   -1.2343    5.6225 H         1 <0>         0.1548
     33 H8          4.7644   -1.9972    7.9354 H         1 <0>         0.1507
     34 H9          8.4426    0.1597    8.1532 H         1 <0>         0.1539
@<TRIPOS>BOND
     1    1    6 ar
     2    1    2 ar
     3    1   26 1
     4    2    3 ar
     5    2   27 1
     6    3    4 ar
     7    3   25 1
     8    4    5 ar
     9    4    8 1
    10    5    6 ar
    11    5    7 1
    12    6   28 1
    13    8    9 1
    14    8   29 1
    15    8   30 1
    16    9   23 am
    17    9   10 am
    18   10   11 2
    19   10   12 1
    20   12   13 2
    21   12   22 1
    22   13   14 1
    23   13   31 1
    24   14   19 ar
    25   14   15 ar
    26   15   16 ar
    27   15   32 1
    28   16   17 ar
    29   16   33 1
    30   17   18 ar
    31   17   21 1
    32   18   19 ar
    33   18   34 1
    34   19   20 1
    35   22   23 1
    36   23   24 2
@<TRIPOS>MOLECULE
ZINC12358153
   37    39     0     0     0
SMALL
USER_CHARGES
2-[(2,4-dichlorobenzoyl)amino]-5-pyrimidin-2-yloxy-benzoic acid
@<TRIPOS>ATOM
      1 C1          4.9145    4.1605   -2.9384 C.ar      1 <0>        -0.2751
      2 C2          5.2362    4.7871   -1.7447 C.ar      1 <0>         0.1833
      3 N1          4.4017    4.6947   -0.7224 N.ar      1 <0>        -0.5251
      4 C3          3.2718    4.0142   -0.8305 C.ar      1 <0>         0.5002
      5 N2          2.9368    3.4001   -1.9539 N.ar      1 <0>        -0.5493
      6 C4          3.7232    3.4564   -3.0162 C.ar      1 <0>         0.1862
      7 O1          2.4407    3.9398    0.2365 O.3       1 <0>        -0.2219
      8 C5          1.3404    3.1473    0.1346 C.ar      1 <0>         0.0533
      9 C6          1.4873    1.7699    0.0174 C.ar      1 <0>        -0.0922
     10 C7          0.3778    0.9564   -0.0857 C.ar      1 <0>        -0.1228
     11 C8         -0.8957    1.5101   -0.0793 C.ar      1 <0>         0.1828
     12 C9         -1.0508    2.8991    0.0440 C.ar      1 <0>        -0.1285
     13 C10         0.0795    3.7141    0.1483 C.ar      1 <0>        -0.0468
     14 C11        -2.3983    3.4959    0.0573 C.2       1 <0>         0.4994
     15 O2         -3.3798    2.7797    0.0697 O.co2     1 <0>        -0.6319
     16 N3         -2.0155    0.6888   -0.1893 N.am      1 <0>        -0.6358
     17 C12        -2.0147   -0.5318    0.3822 C.2       1 <0>         0.5502
     18 O3         -1.0111   -0.9464    0.9290 O.2       1 <0>        -0.5093
     19 C13        -3.2328   -1.3656    0.3443 C.ar      1 <0>        -0.1178
     20 C14        -4.3876   -0.8923   -0.2830 C.ar      1 <0>        -0.0507
     21 C15        -5.5216   -1.6751   -0.3151 C.ar      1 <0>        -0.1135
     22 C16        -5.5186   -2.9298    0.2732 C.ar      1 <0>        -0.0031
     23 C17        -4.3783   -3.4057    0.8972 C.ar      1 <0>        -0.1180
     24 C18        -3.2336   -2.6341    0.9310 C.ar      1 <0>         0.0250
     25 Cl1        -1.8016   -3.2349    1.7070 Cl        1 <0>        -0.0202
     26 Cl2        -6.9514   -3.9089    0.2279 Cl        1 <0>        -0.0566
     27 H1          5.5772    4.2198   -3.7891 H         1 <0>         0.1491
     28 H2          6.1567    5.3442   -1.6504 H         1 <0>         0.1751
     29 H3          3.4425    2.9563   -3.9313 H         1 <0>         0.1707
     30 H4          2.4754    1.3341    0.0074 H         1 <0>         0.1204
     31 H5          0.5000   -0.1129   -0.1761 H         1 <0>         0.1438
     32 H6         -0.0316    4.7845    0.2391 H         1 <0>         0.1433
     33 H7         -2.7958    0.9953   -0.6772 H         1 <0>         0.4232
     34 H8         -4.3918    0.0851   -0.7424 H         1 <0>         0.1559
     35 H9         -6.4147   -1.3099   -0.8003 H         1 <0>         0.1479
     36 H10        -4.3824   -4.3843    1.3542 H         1 <0>         0.1488
     37 O4         -2.5418    4.8358    0.0559 O.co2     1 <0>        -0.7399
@<TRIPOS>BOND
     1    1    6 ar
     2    1    2 ar
     3    1   27 1
     4    2    3 ar
     5    2   28 1
     6    3    4 ar
     7    4    5 ar
     8    4    7 1
     9    5    6 ar
    10    6   29 1
    11    7    8 1
    12    8   13 ar
    13    8    9 ar
    14    9   10 ar
    15    9   30 1
    16   10   11 ar
    17   10   31 1
    18   11   12 ar
    19   11   16 1
    20   12   13 ar
    21   12   14 1
    22   13   32 1
    23   14   15 2
    24   14   37 1
    25   16   17 am
    26   16   33 1
    27   17   18 2
    28   17   19 1
    29   19   24 ar
    30   19   20 ar
    31   20   21 ar
    32   20   34 1
    33   21   22 ar
    34   21   35 1
    35   22   23 ar
    36   22   26 1
    37   23   24 ar
    38   23   36 1
    39   24   25 1
@<TRIPOS>MOLECULE
ZINC06281719
   31    32     0     0     0
SMALL
USER_CHARGES
2-(2,4-dichlorobenzoyl)amino-5-methyl-benzoic acid
@<TRIPOS>ATOM
      1 C1         -2.5959    3.4419   -0.0238 C.3       1 <0>        -0.1037
      2 C2         -1.2097    2.8509   -0.0115 C.ar      1 <0>        -0.1298
      3 C3         -1.0469    1.4746   -0.0194 C.ar      1 <0>        -0.1007
      4 C4          0.2168    0.9203   -0.0034 C.ar      1 <0>        -0.1464
      5 C5          1.3368    1.7414    0.0100 C.ar      1 <0>         0.1729
      6 C6          1.1757    3.1356    0.0126 C.ar      1 <0>        -0.1467
      7 C7         -0.1106    3.6816    0.0017 C.ar      1 <0>        -0.0558
      8 C8          2.3558    4.0182    0.0273 C.2       1 <0>         0.4984
      9 O1          3.4709    3.5433   -0.0594 O.co2     1 <0>        -0.6382
     10 N1          2.6121    1.1846    0.0203 N.am      1 <0>        -0.6357
     11 C9          2.8120   -0.0511   -0.4792 C.2       1 <0>         0.5445
     12 O2          1.9014   -0.6386   -1.0303 O.2       1 <0>        -0.5093
     13 C10         4.1370   -0.6913   -0.3572 C.ar      1 <0>        -0.1175
     14 C11         5.1854   -0.0190    0.2753 C.ar      1 <0>        -0.0540
     15 C12         6.4198   -0.6220    0.3866 C.ar      1 <0>        -0.1130
     16 C13         6.6229   -1.8930   -0.1269 C.ar      1 <0>        -0.0039
     17 C14         5.5889   -2.5657   -0.7551 C.ar      1 <0>        -0.1174
     18 C15         4.3460   -1.9749   -0.8690 C.ar      1 <0>         0.0245
     19 Cl1         3.0480   -2.8222   -1.6507 Cl        1 <0>        -0.0199
     20 Cl2         8.1810   -2.6447    0.0178 Cl        1 <0>        -0.0566
     21 H1         -2.9198    3.5871   -1.0543 H         1 <0>         0.0623
     22 H2         -3.2842    2.7643    0.4814 H         1 <0>         0.0587
     23 H3         -2.5863    4.4017    0.4928 H         1 <0>         0.0628
     24 H4         -1.9147    0.8318   -0.0339 H         1 <0>         0.1169
     25 H5          0.3350   -0.1532   -0.0058 H         1 <0>         0.1418
     26 H6         -0.2431    4.7535    0.0033 H         1 <0>         0.1326
     27 H7          3.3572    1.6859    0.3870 H         1 <0>         0.4247
     28 H8          5.0289    0.9713    0.6768 H         1 <0>         0.1547
     29 H9          7.2307   -0.1027    0.8755 H         1 <0>         0.1480
     30 H10         5.7534   -3.5562   -1.1530 H         1 <0>         0.1489
     31 O3          2.1982    5.3521    0.1368 O.co2     1 <0>        -0.7430
@<TRIPOS>BOND
     1    1    2 1
     2    1   21 1
     3    1   22 1
     4    1   23 1
     5    2    7 ar
     6    2    3 ar
     7    3    4 ar
     8    3   24 1
     9    4    5 ar
    10    4   25 1
    11    5    6 ar
    12    5   10 1
    13    6    7 ar
    14    6    8 1
    15    7   26 1
    16    8    9 2
    17    8   31 1
    18   10   11 am
    19   10   27 1
    20   11   12 2
    21   11   13 1
    22   13   18 ar
    23   13   14 ar
    24   14   15 ar
    25   14   28 1
    26   15   16 ar
    27   15   29 1
    28   16   17 ar
    29   16   20 1
    30   17   18 ar
    31   17   30 1
    32   18   19 1
@<TRIPOS>MOLECULE
ZINC00968328
   45    47     0     0     0
SMALL
USER_CHARGES

@<TRIPOS>ATOM
      1 C1         -0.0178    1.4608    0.0101 C.3       1 <0>         0.0553
      2 N1          0.0021   -0.0041    0.0020 N.pl3     1 <0>        -0.5905
      3 C2          0.0241   -0.7433    1.2666 C.3       1 <0>         0.1145
      4 C3         -1.4105   -1.0203    1.7205 C.3       1 <0>         0.0303
      5 O1         -2.0465   -1.8923    0.7840 O.3       1 <0>        -0.3206
      6 C4         -3.3348   -2.2400    1.0412 C.ar      1 <0>         0.1254
      7 C5         -3.9756   -1.7474    2.1688 C.ar      1 <0>        -0.2022
      8 C6         -5.2854   -2.1021    2.4278 C.ar      1 <0>        -0.0584
      9 C7         -5.9575   -2.9475    1.5646 C.ar      1 <0>        -0.1223
     10 C8         -5.3210   -3.4402    0.4404 C.ar      1 <0>        -0.0671
     11 C9         -4.0133   -3.0837    0.1736 C.ar      1 <0>        -0.1480
     12 C10        -7.3862   -3.3331    1.8499 C.3       1 <0>        -0.0555
     13 C11        -8.3282   -2.3252    1.1885 C.3       1 <0>        -0.0698
     14 H1         -8.1156   -2.2277    0.1239 H         1 <0>         0.1599
     15 C12        -9.7865   -2.6882    1.4311 C.2       1 <0>         0.5294
     16 O2        -10.2728   -3.7226    1.0268 O.2       1 <0>        -0.4537
     17 N2        -10.4863   -1.7976    2.1136 N.am      1 <0>        -0.6890
     18 C13        -9.9701   -0.6427    2.5734 C.2       1 <0>         0.5656
     19 O3        -10.5320    0.2306    3.2056 O.2       1 <0>        -0.4105
     20 S1         -8.2649   -0.6922    2.0368 S.3       1 <0>        -0.1557
     21 C14         0.0000   -0.6925   -1.2055 C.ar      1 <0>         0.4451
     22 C15         0.0132   -2.0839   -1.2060 C.ar      1 <0>        -0.1767
     23 C16         0.0110   -2.7560   -2.4146 C.ar      1 <0>         0.0305
     24 C17        -0.0044   -2.0117   -3.5870 C.ar      1 <0>        -0.1669
     25 C18        -0.0170   -0.6335   -3.5127 C.ar      1 <0>         0.1392
     26 N3         -0.0200   -0.0186   -2.3450 N.ar      1 <0>        -0.5042
     27 H2          1.0048    1.8381    0.0023 H         1 <0>         0.0864
     28 H3         -0.5450    1.8219   -0.8730 H         1 <0>         0.0733
     29 H4         -0.5280    1.8123    0.9069 H         1 <0>         0.1059
     30 H5          0.5496   -1.6879    1.1262 H         1 <0>         0.1083
     31 H6          0.5371   -0.1514    2.0246 H         1 <0>         0.1286
     32 H7         -1.3961   -1.4911    2.7035 H         1 <0>         0.0921
     33 H8         -1.9619   -0.0816    1.7754 H         1 <0>         0.0744
     34 H9         -3.4507   -1.0876    2.8437 H         1 <0>         0.1290
     35 H10        -5.7846   -1.7188    3.3055 H         1 <0>         0.1345
     36 H11        -5.8481   -4.1007   -0.2321 H         1 <0>         0.1360
     37 H12        -3.5179   -3.4652   -0.7070 H         1 <0>         0.1294
     38 H13        -7.5805   -4.3285    1.4504 H         1 <0>         0.1089
     39 H14        -7.5539   -3.3347    2.9269 H         1 <0>         0.0935
     40 H15       -11.4209   -1.9864    2.2920 H         1 <0>         0.4214
     41 H16         0.0254   -2.6314   -0.2752 H         1 <0>         0.1792
     42 H17         0.0214   -3.8355   -2.4461 H         1 <0>         0.1727
     43 H18        -0.0062   -2.5062   -4.5471 H         1 <0>         0.1794
     44 H19        -0.0287   -0.0508   -4.4219 H         1 <0>         0.2048
     45 H20        -0.0329    0.9510   -2.3209 H         1 <0>         0.4381
@<TRIPOS>BOND
     1    1    2 1
     2    1   27 1
     3    1   28 1
     4    1   29 1
     5    2    3 1
     6    2   21 1
     7    3    4 1
     8    3   30 1
     9    3   31 1
    10    4    5 1
    11    4   32 1
    12    4   33 1
    13    5    6 1
    14    6   11 ar
    15    6    7 ar
    16    7    8 ar
    17    7   34 1
    18    8    9 ar
    19    8   35 1
    20    9   10 ar
    21    9   12 1
    22   10   11 ar
    23   10   36 1
    24   11   37 1
    25   12   13 1
    26   12   38 1
    27   12   39 1
    28   13   14 1
    29   13   20 1
    30   13   15 1
    31   15   16 2
    32   15   17 am
    33   17   18 am
    34   17   40 1
    35   18   19 2
    36   18   20 1
    37   21   26 ar
    38   21   22 ar
    39   22   23 ar
    40   22   41 1
    41   23   24 ar
    42   23   42 1
    43   24   25 ar
    44   24   43 1
    45   25   26 ar
    46   25   44 1
    47   26   45 1
@<TRIPOS>MOLECULE
ZINC00968328
   44    46     0     0     0
SMALL
USER_CHARGES

@<TRIPOS>ATOM
      1 C1         -0.0178    1.4608    0.0101 C.3       1 <0>         0.0943
      2 N1          0.0021   -0.0041    0.0020 N.pl3     1 <0>        -0.6139
      3 C2          0.0241   -0.7433    1.2666 C.3       1 <0>         0.1321
      4 C3         -1.4105   -1.0203    1.7205 C.3       1 <0>         0.0409
      5 O1         -2.0465   -1.8923    0.7840 O.3       1 <0>        -0.2838
      6 C4         -3.3348   -2.2400    1.0412 C.ar      1 <0>         0.1410
      7 C5         -3.9756   -1.7474    2.1688 C.ar      1 <0>        -0.2122
      8 C6         -5.2854   -2.1021    2.4278 C.ar      1 <0>        -0.0601
      9 C7         -5.9575   -2.9475    1.5646 C.ar      1 <0>        -0.1420
     10 C8         -5.3210   -3.4402    0.4404 C.ar      1 <0>        -0.0675
     11 C9         -4.0133   -3.0837    0.1736 C.ar      1 <0>        -0.1507
     12 C10        -7.3862   -3.3331    1.8499 C.3       1 <0>        -0.0487
     13 C11        -8.3282   -2.3252    1.1885 C.3       1 <0>        -0.0704
     14 H1         -8.1156   -2.2277    0.1239 H         1 <0>         0.1610
     15 C12        -9.7865   -2.6882    1.4311 C.2       1 <0>         0.5301
     16 O2        -10.2728   -3.7226    1.0268 O.2       1 <0>        -0.4577
     17 N2        -10.4863   -1.7976    2.1136 N.am      1 <0>        -0.6898
     18 C13        -9.9701   -0.6427    2.5734 C.2       1 <0>         0.5614
     19 O3        -10.5320    0.2306    3.2056 O.2       1 <0>        -0.4177
     20 S1         -8.2649   -0.6922    2.0368 S.3       1 <0>        -0.1442
     21 C14         0.0000   -0.6925   -1.2055 C.ar      1 <0>         0.4042
     22 C15         0.0901    0.0128   -2.4015 C.ar      1 <0>        -0.2403
     23 C16         0.0870   -0.6849   -3.5956 C.ar      1 <0>        -0.0375
     24 C17        -0.0066   -2.0699   -3.5538 C.ar      1 <0>        -0.2346
     25 C18        -0.0930   -2.7051   -2.3314 C.ar      1 <0>         0.1463
     26 N3         -0.0823   -2.0140   -1.2072 N.ar      1 <0>        -0.5187
     27 H2          1.0048    1.8381    0.0023 H         1 <0>         0.0542
     28 H3         -0.5450    1.8219   -0.8730 H         1 <0>         0.0704
     29 H4         -0.5280    1.8123    0.9069 H         1 <0>         0.0700
     30 H5          0.5496   -1.6879    1.1262 H         1 <0>         0.0964
     31 H6          0.5371   -0.1514    2.0246 H         1 <0>         0.0938
     32 H7         -1.3961   -1.4911    2.7035 H         1 <0>         0.0688
     33 H8         -1.9619   -0.0816    1.7754 H         1 <0>         0.0592
     34 H9         -3.4507   -1.0876    2.8437 H         1 <0>         0.1266
     35 H10        -5.7846   -1.7188    3.3055 H         1 <0>         0.1282
     36 H11        -5.8481   -4.1007   -0.2321 H         1 <0>         0.1303
     37 H12        -3.5179   -3.4652   -0.7070 H         1 <0>         0.1299
     38 H13        -7.5805   -4.3285    1.4504 H         1 <0>         0.1051
     39 H14        -7.5539   -3.3347    2.9269 H         1 <0>         0.0892
     40 H15       -11.4209   -1.9864    2.2920 H         1 <0>         0.4182
     41 H16         0.1612    1.0904   -2.3974 H         1 <0>         0.1284
     42 H17         0.1553   -0.1643   -4.5394 H         1 <0>         0.1296
     43 H18        -0.0120   -2.6441   -4.4685 H         1 <0>         0.1285
     44 H19        -0.1662   -3.7820   -2.2944 H         1 <0>         0.1519
@<TRIPOS>BOND
     1    1    2 1
     2    1   27 1
     3    1   28 1
     4    1   29 1
     5    2    3 1
     6    2   21 1
     7    3    4 1
     8    3   30 1
     9    3   31 1
    10    4    5 1
    11    4   32 1
    12    4   33 1
    13    5    6 1
    14    6   11 ar
    15    6    7 ar
    16    7    8 ar
    17    7   34 1
    18    8    9 ar
    19    8   35 1
    20    9   10 ar
    21    9   12 1
    22   10   11 ar
    23   10   36 1
    24   11   37 1
    25   12   13 1
    26   12   38 1
    27   12   39 1
    28   13   14 1
    29   13   20 1
    30   13   15 1
    31   15   16 2
    32   15   17 am
    33   17   18 am
    34   17   40 1
    35   18   19 2
    36   18   20 1
    37   21   26 ar
    38   21   22 ar
    39   22   23 ar
    40   22   41 1
    41   23   24 ar
    42   23   42 1
    43   24   25 ar
    44   24   43 1
    45   25   26 ar
    46   25   44 1
@<TRIPOS>MOLECULE
ZINC00968330
   45    47     0     0     0
SMALL
USER_CHARGES

@<TRIPOS>ATOM
      1 C1         -0.0178    1.4608    0.0101 C.3       1 <0>         0.0556
      2 N1          0.0021   -0.0041    0.0020 N.pl3     1 <0>        -0.5910
      3 C2          0.0241   -0.7433    1.2666 C.3       1 <0>         0.1145
      4 C3         -1.4105   -1.0203    1.7205 C.3       1 <0>         0.0306
      5 O1         -2.0465   -1.8923    0.7840 O.3       1 <0>        -0.3203
      6 C4         -3.3348   -2.2400    1.0412 C.ar      1 <0>         0.1254
      7 C5         -3.9756   -1.7474    2.1688 C.ar      1 <0>        -0.2040
      8 C6         -5.2854   -2.1021    2.4278 C.ar      1 <0>        -0.0654
      9 C7         -5.9575   -2.9475    1.5646 C.ar      1 <0>        -0.1221
     10 C8         -5.3210   -3.4402    0.4404 C.ar      1 <0>        -0.0603
     11 C9         -4.0133   -3.0837    0.1736 C.ar      1 <0>        -0.1461
     12 C10        -7.3862   -3.3331    1.8499 C.3       1 <0>        -0.0555
     13 C11        -8.3282   -2.3252    1.1885 C.3       1 <0>        -0.0697
     14 H1         -8.0909   -1.3060    1.4933 H         1 <0>         0.1596
     15 C12        -9.7859   -2.6623    1.4695 C.2       1 <0>         0.5292
     16 O2        -10.2448   -2.6686    2.5917 O.2       1 <0>        -0.4534
     17 N2        -10.5170   -2.9474    0.4052 N.am      1 <0>        -0.6890
     18 C13       -10.0318   -2.9469   -0.8502 C.2       1 <0>         0.5657
     19 O3        -10.6238   -3.1938   -1.8830 O.2       1 <0>        -0.4109
     20 S1         -8.3132   -2.4970   -0.6448 S.3       1 <0>        -0.1554
     21 C14         0.0000   -0.6925   -1.2055 C.ar      1 <0>         0.4449
     22 C15         0.0132   -2.0839   -1.2060 C.ar      1 <0>        -0.1767
     23 C16         0.0110   -2.7560   -2.4146 C.ar      1 <0>         0.0308
     24 C17        -0.0044   -2.0117   -3.5870 C.ar      1 <0>        -0.1664
     25 C18        -0.0170   -0.6335   -3.5127 C.ar      1 <0>         0.1393
     26 N3         -0.0200   -0.0186   -2.3450 N.ar      1 <0>        -0.5040
     27 H2          1.0048    1.8381    0.0023 H         1 <0>         0.0863
     28 H3         -0.5450    1.8219   -0.8730 H         1 <0>         0.0733
     29 H4         -0.5280    1.8123    0.9069 H         1 <0>         0.1054
     30 H5          0.5496   -1.6879    1.1262 H         1 <0>         0.1083
     31 H6          0.5371   -0.1514    2.0246 H         1 <0>         0.1284
     32 H7         -1.3961   -1.4911    2.7035 H         1 <0>         0.0918
     33 H8         -1.9619   -0.0816    1.7754 H         1 <0>         0.0738
     34 H9         -3.4507   -1.0876    2.8437 H         1 <0>         0.1287
     35 H10        -5.7846   -1.7188    3.3055 H         1 <0>         0.1320
     36 H11        -5.8481   -4.1007   -0.2321 H         1 <0>         0.1384
     37 H12        -3.5179   -3.4652   -0.7070 H         1 <0>         0.1298
     38 H13        -7.5805   -4.3285    1.4504 H         1 <0>         0.0942
     39 H14        -7.5539   -3.3347    2.9269 H         1 <0>         0.1083
     40 H15       -11.4523   -3.1688    0.5362 H         1 <0>         0.4215
     41 H16         0.0254   -2.6314   -0.2752 H         1 <0>         0.1791
     42 H17         0.0214   -3.8355   -2.4461 H         1 <0>         0.1728
     43 H18        -0.0062   -2.5062   -4.5471 H         1 <0>         0.1796
     44 H19        -0.0287   -0.0508   -4.4219 H         1 <0>         0.2049
     45 H20        -0.0329    0.9510   -2.3209 H         1 <0>         0.4380
@<TRIPOS>BOND
     1    1    2 1
     2    1   27 1
     3    1   28 1
     4    1   29 1
     5    2    3 1
     6    2   21 1
     7    3    4 1
     8    3   30 1
     9    3   31 1
    10    4    5 1
    11    4   32 1
    12    4   33 1
    13    5    6 1
    14    6   11 ar
    15    6    7 ar
    16    7    8 ar
    17    7   34 1
    18    8    9 ar
    19    8   35 1
    20    9   10 ar
    21    9   12 1
    22   10   11 ar
    23   10   36 1
    24   11   37 1
    25   12   13 1
    26   12   38 1
    27   12   39 1
    28   13   14 1
    29   13   20 1
    30   13   15 1
    31   15   16 2
    32   15   17 am
    33   17   18 am
    34   17   40 1
    35   18   19 2
    36   18   20 1
    37   21   26 ar
    38   21   22 ar
    39   22   23 ar
    40   22   41 1
    41   23   24 ar
    42   23   42 1
    43   24   25 ar
    44   24   43 1
    45   25   26 ar
    46   25   44 1
    47   26   45 1
@<TRIPOS>MOLECULE
ZINC00968330
   44    46     0     0     0
SMALL
USER_CHARGES

@<TRIPOS>ATOM
      1 C1         -0.0178    1.4608    0.0101 C.3       1 <0>         0.0945
      2 N1          0.0021   -0.0041    0.0020 N.pl3     1 <0>        -0.6142
      3 C2          0.0241   -0.7433    1.2666 C.3       1 <0>         0.1321
      4 C3         -1.4105   -1.0203    1.7205 C.3       1 <0>         0.0411
      5 O1         -2.0465   -1.8923    0.7840 O.3       1 <0>        -0.2835
      6 C4         -3.3348   -2.2400    1.0412 C.ar      1 <0>         0.1409
      7 C5         -3.9756   -1.7474    2.1688 C.ar      1 <0>        -0.2139
      8 C6         -5.2854   -2.1021    2.4278 C.ar      1 <0>        -0.0668
      9 C7         -5.9575   -2.9475    1.5646 C.ar      1 <0>        -0.1417
     10 C8         -5.3210   -3.4402    0.4404 C.ar      1 <0>        -0.0611
     11 C9         -4.0133   -3.0837    0.1736 C.ar      1 <0>        -0.1489
     12 C10        -7.3862   -3.3331    1.8499 C.3       1 <0>        -0.0487
     13 C11        -8.3282   -2.3252    1.1885 C.3       1 <0>        -0.0711
     14 H1         -8.0909   -1.3060    1.4933 H         1 <0>         0.1601
     15 C12        -9.7859   -2.6623    1.4695 C.2       1 <0>         0.5303
     16 O2        -10.2448   -2.6686    2.5917 O.2       1 <0>        -0.4587
     17 N2        -10.5170   -2.9474    0.4052 N.am      1 <0>        -0.6898
     18 C13       -10.0318   -2.9469   -0.8502 C.2       1 <0>         0.5609
     19 O3        -10.6238   -3.1938   -1.8830 O.2       1 <0>        -0.4172
     20 S1         -8.3132   -2.4970   -0.6448 S.3       1 <0>        -0.1415
     21 C14         0.0000   -0.6925   -1.2055 C.ar      1 <0>         0.4038
     22 C15         0.0901    0.0128   -2.4015 C.ar      1 <0>        -0.2402
     23 C16         0.0870   -0.6849   -3.5956 C.ar      1 <0>        -0.0374
     24 C17        -0.0066   -2.0699   -3.5538 C.ar      1 <0>        -0.2340
     25 C18        -0.0930   -2.7051   -2.3314 C.ar      1 <0>         0.1464
     26 N3         -0.0823   -2.0140   -1.2072 N.ar      1 <0>        -0.5186
     27 H2          1.0048    1.8381    0.0023 H         1 <0>         0.0541
     28 H3         -0.5450    1.8219   -0.8730 H         1 <0>         0.0704
     29 H4         -0.5280    1.8123    0.9069 H         1 <0>         0.0696
     30 H5          0.5496   -1.6879    1.1262 H         1 <0>         0.0964
     31 H6          0.5371   -0.1514    2.0246 H         1 <0>         0.0936
     32 H7         -1.3961   -1.4911    2.7035 H         1 <0>         0.0686
     33 H8         -1.9619   -0.0816    1.7754 H         1 <0>         0.0586
     34 H9         -3.4507   -1.0876    2.8437 H         1 <0>         0.1263
     35 H10        -5.7846   -1.7188    3.3055 H         1 <0>         0.1256
     36 H11        -5.8481   -4.1007   -0.2321 H         1 <0>         0.1327
     37 H12        -3.5179   -3.4652   -0.7070 H         1 <0>         0.1303
     38 H13        -7.5805   -4.3285    1.4504 H         1 <0>         0.0900
     39 H14        -7.5539   -3.3347    2.9269 H         1 <0>         0.1041
     40 H15       -11.4523   -3.1688    0.5362 H         1 <0>         0.4181
     41 H16         0.1612    1.0904   -2.3974 H         1 <0>         0.1282
     42 H17         0.1553   -0.1643   -4.5394 H         1 <0>         0.1296
     43 H18        -0.0120   -2.6441   -4.4685 H         1 <0>         0.1287
     44 H19        -0.1662   -3.7820   -2.2944 H         1 <0>         0.1520
@<TRIPOS>BOND
     1    1    2 1
     2    1   27 1
     3    1   28 1
     4    1   29 1
     5    2    3 1
     6    2   21 1
     7    3    4 1
     8    3   30 1
     9    3   31 1
    10    4    5 1
    11    4   32 1
    12    4   33 1
    13    5    6 1
    14    6   11 ar
    15    6    7 ar
    16    7    8 ar
    17    7   34 1
    18    8    9 ar
    19    8   35 1
    20    9   10 ar
    21    9   12 1
    22   10   11 ar
    23   10   36 1
    24   11   37 1
    25   12   13 1
    26   12   38 1
    27   12   39 1
    28   13   14 1
    29   13   20 1
    30   13   15 1
    31   15   16 2
    32   15   17 am
    33   17   18 am
    34   17   40 1
    35   18   19 2
    36   18   20 1
    37   21   26 ar
    38   21   22 ar
    39   22   23 ar
    40   22   41 1
    41   23   24 ar
    42   23   42 1
    43   24   25 ar
    44   24   43 1
    45   25   26 ar
    46   25   44 1
@<TRIPOS>MOLECULE
ZINC12358521
   58    59     0     0     0
SMALL
USER_CHARGES
(5Z)-5-[(3aS,4R,5R,6aS)-5-hydroxy-4-[(E,3S)-3-hydroxyoct-1-enyl]-3,3a,4,5,6,6a-hexahydro-1H-pentalen-2-ylidene]pentanoic acid
@<TRIPOS>ATOM
      1 C1         -0.0604    1.1126   -4.9886 C.3       1 <0>        -0.1536
      2 C2         -0.7766    1.6061   -3.7298 C.3       1 <0>        -0.1257
      3 C3         -0.0366    1.0992   -2.4903 C.3       1 <0>        -0.1208
      4 C4         -0.7527    1.5927   -1.2315 C.3       1 <0>        -0.1172
      5 C5         -0.0127    1.0858    0.0080 C.3       1 <0>        -0.1447
      6 C6         -0.7288    1.5792    1.2668 C.3       1 <0>         0.1360
      7 H1         -1.7755    1.2768    1.2315 H         1 <0>         0.1068
      8 C7         -0.0738    0.9805    2.4848 C.2       1 <0>        -0.1928
      9 C8          0.3670    1.7596    3.4412 C.2       1 <0>        -0.1361
     10 C9          1.0221    1.1608    4.6591 C.3       1 <0>        -0.0513
     11 H2          1.0556    0.0749    4.5715 H         1 <0>         0.0893
     12 C10         2.4456    1.7238    4.8268 C.3       1 <0>         0.1093
     13 H3          2.5036    2.7345    4.4229 H         1 <0>         0.0600
     14 C11         2.6866    1.7407    6.3486 C.3       1 <0>        -0.1526
     15 C12         1.3055    1.9325    6.9934 C.3       1 <0>        -0.0849
     16 H4          1.1740    2.9593    7.3347 H         1 <0>         0.0790
     17 C13         0.2543    1.5663    5.9265 C.3       1 <0>        -0.0758
     18 H5         -0.4095    2.4076    5.7274 H         1 <0>         0.0827
     19 C14        -0.5139    0.3514    6.4708 C.3       1 <0>        -0.0841
     20 C15        -0.2479    0.3206    7.9629 C.2       1 <0>        -0.1466
     21 C16        -1.0424   -0.1320    8.9010 C.2       1 <0>        -0.1276
     22 C17        -2.3892   -0.7021    8.5375 C.3       1 <0>        -0.0931
     23 C18        -2.5143   -2.1172    9.1056 C.3       1 <0>        -0.0919
     24 C19        -3.8817   -2.6959    8.7366 C.3       1 <0>        -0.1581
     25 C20        -4.0048   -4.0898    9.2961 C.2       1 <0>         0.4574
     26 O1         -3.0925   -4.5709    9.9255 O.co2     1 <0>        -0.6422
     27 C21         1.1312    0.9245    8.1405 C.3       1 <0>        -0.0824
     28 O2          3.3956    0.8738    4.1809 O.3       1 <0>        -0.5623
     29 O3         -0.6468    3.0043    1.3339 O.3       1 <0>        -0.5583
     30 H6         -0.0456    0.0228   -4.9946 H         1 <0>         0.0533
     31 H7         -0.5876    1.4737   -5.8717 H         1 <0>         0.0525
     32 H8          0.9622    1.4899   -4.9964 H         1 <0>         0.0525
     33 H9         -1.7991    1.2288   -3.7221 H         1 <0>         0.0609
     34 H10        -0.7913    2.6960   -3.7239 H         1 <0>         0.0602
     35 H11         0.9860    1.4765   -2.4981 H         1 <0>         0.0593
     36 H12        -0.0218    0.0093   -2.4963 H         1 <0>         0.0605
     37 H13        -1.7753    1.2154   -1.2238 H         1 <0>         0.0616
     38 H14        -0.7675    2.6825   -1.2255 H         1 <0>         0.0673
     39 H15         0.0021   -0.0041    0.0020 H         1 <0>         0.0729
     40 H16         1.0099    1.4631    0.0003 H         1 <0>         0.0651
     41 H17         0.0323   -0.0910    2.5691 H         1 <0>         0.1160
     42 H18         0.2610    2.8311    3.3568 H         1 <0>         0.1157
     43 H19         3.3441    2.5679    6.6160 H         1 <0>         0.0656
     44 H20         3.1233    0.7952    6.6703 H         1 <0>         0.0787
     45 H21        -1.5812    0.4672    6.2823 H         1 <0>         0.0712
     46 H22        -0.1472   -0.5636    6.0054 H         1 <0>         0.0756
     47 H23        -0.7322   -0.0966    9.9349 H         1 <0>         0.1110
     48 H24        -3.1749   -0.0723    8.9548 H         1 <0>         0.0667
     49 H25        -2.4886   -0.7360    7.4526 H         1 <0>         0.0638
     50 H26        -1.7285   -2.7469    8.6883 H         1 <0>         0.0595
     51 H27        -2.4149   -2.0833   10.1905 H         1 <0>         0.0600
     52 H28        -4.6674   -2.0661    9.1539 H         1 <0>         0.0621
     53 H29        -3.9810   -2.7298    7.6516 H         1 <0>         0.0615
     54 H30         1.8924    0.1470    8.0756 H         1 <0>         0.0749
     55 H31         1.1976    1.4346    9.1015 H         1 <0>         0.0650
     56 H32         4.3101    1.1793    4.2539 H         1 <0>         0.3757
     57 H33         0.2576    3.3450    1.3680 H         1 <0>         0.3719
     58 O4         -5.1280   -4.7968    9.0953 O.co2     1 <0>        -0.7795
@<TRIPOS>BOND
     1    1    2 1
     2    1   30 1
     3    1   31 1
     4    1   32 1
     5    2    3 1
     6    2   33 1
     7    2   34 1
     8    3    4 1
     9    3   35 1
    10    3   36 1
    11    4    5 1
    12    4   37 1
    13    4   38 1
    14    5    6 1
    15    5   39 1
    16    5   40 1
    17    6    7 1
    18    6    8 1
    19    6   29 1
    20    8    9 2
    21    8   41 1
    22    9   10 1
    23    9   42 1
    24   10   11 1
    25   10   17 1
    26   10   12 1
    27   12   13 1
    28   12   14 1
    29   12   28 1
    30   14   15 1
    31   14   43 1
    32   14   44 1
    33   15   16 1
    34   15   27 1
    35   15   17 1
    36   17   18 1
    37   17   19 1
    38   19   20 1
    39   19   45 1
    40   19   46 1
    41   20   21 2
    42   20   27 1
    43   21   22 1
    44   21   47 1
    45   22   23 1
    46   22   48 1
    47   22   49 1
    48   23   24 1
    49   23   50 1
    50   23   51 1
    51   24   25 1
    52   24   52 1
    53   24   53 1
    54   25   26 2
    55   25   58 1
    56   27   54 1
    57   27   55 1
    58   28   56 1
    59   29   57 1
@<TRIPOS>MOLECULE
ZINC01105407
   44    47     0     0     0
SMALL
USER_CHARGES

@<TRIPOS>ATOM
      1 C1          0.3984    1.9980    1.1147 C.ar      1 <0>        -0.0994
      2 C2          0.9852    1.3068    2.1595 C.ar      1 <0>        -0.1233
      3 C3          2.1009    0.5265    1.9337 C.ar      1 <0>        -0.0554
      4 C4          2.6364    0.4357    0.6499 C.ar      1 <0>        -0.0362
      5 C5          2.0408    1.1345   -0.3990 C.ar      1 <0>        -0.0822
      6 C6          0.9255    1.9117   -0.1613 C.ar      1 <0>        -0.1265
      7 C7          3.8351   -0.4005    0.4011 C.2       1 <0>         0.1962
      8 C8          4.0846   -1.7463    0.9284 C.2       1 <0>        -0.2694
      9 C9          5.3162   -2.1337    0.4396 C.2       1 <0>         0.1397
     10 N1          5.7922   -1.1312   -0.3189 N.pl3     1 <0>        -0.3016
     11 N2          4.8725   -0.0789   -0.3382 N.2       1 <0>        -0.2690
     12 C10         7.0206   -1.1418   -0.9922 C.ar      1 <0>         0.1394
     13 C11         7.8502   -2.2523   -0.9088 C.ar      1 <0>        -0.1345
     14 C12         9.0607   -2.2597   -1.5737 C.ar      1 <0>        -0.0922
     15 C13         9.4471   -1.1626   -2.3217 C.ar      1 <0>        -0.1182
     16 C14         8.6234   -0.0551   -2.4064 C.ar      1 <0>        -0.0952
     17 C15         7.4087   -0.0442   -1.7491 C.ar      1 <0>        -0.1091
     18 C16         3.1986   -2.5279    1.8051 C.2       1 <0>         0.5472
     19 O1          2.0904   -2.1096    2.0779 O.2       1 <0>        -0.4732
     20 O2          3.6158   -3.7079    2.3057 O.3       1 <0>        -0.2980
     21 C17         2.7384   -4.4311    3.0503 C.ar      1 <0>         0.1472
     22 C18         1.7260   -5.1482    2.4292 C.ar      1 <0>        -0.1220
     23 C19         0.8358   -5.8829    3.1882 C.ar      1 <0>        -0.0363
     24 C20         0.9527   -5.9036    4.5657 C.ar      1 <0>        -0.0493
     25 C21         1.9605   -5.1894    5.1872 C.ar      1 <0>        -0.0376
     26 C22         2.8570   -4.4581    4.4323 C.ar      1 <0>        -0.1172
     27 N3         -0.0028   -6.6912    5.3766 N.pl3     1 <0>         0.0323
     28 O3         -0.8846   -7.3158    4.8343 O.2       1 <0>        -0.1527
     29 O4          0.0985   -6.7100    6.5812 O.3       1 <0>        -0.1522
     30 H1         -0.4772    2.6039    1.2952 H         1 <0>         0.1262
     31 H2          0.5696    1.3782    3.1537 H         1 <0>         0.1273
     32 H3          2.5584   -0.0125    2.7502 H         1 <0>         0.1230
     33 H4          2.4517    1.0682   -1.3956 H         1 <0>         0.1257
     34 H5          0.4632    2.4536   -0.9732 H         1 <0>         0.1282
     35 H6          5.8097   -3.0748    0.6325 H         1 <0>         0.2001
     36 H7          7.5493   -3.1091   -0.3242 H         1 <0>         0.1330
     37 H8          9.7063   -3.1230   -1.5092 H         1 <0>         0.1375
     38 H9         10.3943   -1.1707   -2.8404 H         1 <0>         0.1331
     39 H10         8.9282    0.8005   -2.9907 H         1 <0>         0.1364
     40 H11         6.7635    0.8190   -1.8199 H         1 <0>         0.1409
     41 H12         1.6339   -5.1318    1.3533 H         1 <0>         0.1535
     42 H13         0.0476   -6.4413    2.7051 H         1 <0>         0.1627
     43 H14         2.0495   -5.2069    6.2634 H         1 <0>         0.1639
     44 H15         3.6467   -3.9041    4.9179 H         1 <0>         0.1573
@<TRIPOS>BOND
     1    1    6 ar
     2    1    2 ar
     3    1   30 1
     4    2    3 ar
     5    2   31 1
     6    3    4 ar
     7    3   32 1
     8    4    5 ar
     9    4    7 1
    10    5    6 ar
    11    5   33 1
    12    6   34 1
    13    7   11 2
    14    7    8 1
    15    8    9 2
    16    8   18 1
    17    9   10 1
    18    9   35 1
    19   10   11 1
    20   10   12 1
    21   12   17 ar
    22   12   13 ar
    23   13   14 ar
    24   13   36 1
    25   14   15 ar
    26   14   37 1
    27   15   16 ar
    28   15   38 1
    29   16   17 ar
    30   16   39 1
    31   17   40 1
    32   18   19 2
    33   18   20 1
    34   20   21 1
    35   21   26 ar
    36   21   22 ar
    37   22   23 ar
    38   22   41 1
    39   23   24 ar
    40   23   42 1
    41   24   25 ar
    42   24   27 1
    43   25   26 ar
    44   25   43 1
    45   26   44 1
    46   27   28 2
    47   27   29 1
@<TRIPOS>MOLECULE
ZINC03935839
   65    68     0     0     0
SMALL
USER_CHARGES
2-[(4-methoxyphenoxy)carbonyl-[[4-[2-(5-methyl-2-phenyl-oxazol-4-yl)ethoxy]phenyl]methyl]amino]acetic acid
@<TRIPOS>ATOM
      1 C1          5.7284    4.6878   -8.7378 C.3       1 <0>        -0.0732
      2 C2          7.1637    4.9701   -8.3755 C.2       1 <0>        -0.0310
      3 C3          7.6048    5.9552   -7.5722 C.2       1 <0>        -0.0075
      4 N1          8.9422    5.8685   -7.5120 N.2       1 <0>        -0.4591
      5 C4          9.3304    4.8535   -8.2475 C.2       1 <0>         0.2296
      6 O1          8.2440    4.2829   -8.7964 O.3       1 <0>        -0.1930
      7 C5         10.7283    4.4149   -8.4444 C.ar      1 <0>        -0.0175
      8 C6         11.7721    5.0989   -7.8193 C.ar      1 <0>        -0.0706
      9 C7         13.0741    4.6808   -8.0026 C.ar      1 <0>        -0.1205
     10 C8         13.3470    3.5933   -8.8132 C.ar      1 <0>        -0.1009
     11 C9         12.3174    2.9145   -9.4403 C.ar      1 <0>        -0.1210
     12 C10        11.0106    3.3187   -9.2608 C.ar      1 <0>        -0.0904
     13 C11         6.7492    6.9780   -6.8702 C.3       1 <0>        -0.0343
     14 C12         6.3452    6.4465   -5.4935 C.3       1 <0>         0.0671
     15 O2          5.5338    7.4163   -4.8278 O.3       1 <0>        -0.3152
     16 C13         5.0875    7.0984   -3.5842 C.ar      1 <0>         0.1283
     17 C14         4.2951    7.9936   -2.8804 C.ar      1 <0>        -0.1538
     18 C15         3.8422    7.6678   -1.6166 C.ar      1 <0>        -0.0624
     19 C16         4.1781    6.4507   -1.0531 C.ar      1 <0>        -0.1390
     20 C17         4.9723    5.5591   -1.7501 C.ar      1 <0>        -0.0528
     21 C18         5.4231    5.8778   -3.0165 C.ar      1 <0>        -0.2122
     22 C19         3.6827    6.0979    0.3258 C.3       1 <0>         0.1801
     23 N2          2.3904    5.4158    0.2207 N.am      1 <0>        -0.5564
     24 C20         1.1484    6.1925    0.2400 C.3       1 <0>         0.0668
     25 C21         0.6702    6.3399    1.6615 C.2       1 <0>         0.4500
     26 O3          1.3021    5.8468    2.5657 O.co2     1 <0>        -0.6266
     27 C22         2.3443    4.0737    0.1062 C.2       1 <0>         0.6567
     28 O4          3.3745    3.4294    0.0901 O.2       1 <0>        -0.5740
     29 O5          1.1565    3.4466    0.0096 O.3       1 <0>        -0.2960
     30 C23         1.1733    2.0868    0.0221 C.ar      1 <0>         0.0828
     31 C24         1.4951    1.4080    1.1881 C.ar      1 <0>        -0.0764
     32 C25         1.5122    0.0270    1.2009 C.ar      1 <0>        -0.1346
     33 C26         1.2077   -0.6811    0.0477 C.ar      1 <0>         0.1198
     34 C27         0.8859   -0.0022   -1.1183 C.ar      1 <0>        -0.1959
     35 C28         0.8687    1.3788   -1.1310 C.ar      1 <0>        -0.0808
     36 O6          1.2250   -2.0406    0.0601 O.3       1 <0>        -0.3173
     37 C29         0.9011   -2.7048   -1.1630 C.3       1 <0>         0.0271
     38 H1          5.4642    5.2449   -9.6367 H         1 <0>         0.0888
     39 H2          5.6032    3.6208   -8.9217 H         1 <0>         0.0823
     40 H3          5.0796    4.9936   -7.9171 H         1 <0>         0.0958
     41 H4         11.5607    5.9507   -7.1899 H         1 <0>         0.1389
     42 H5         13.8823    5.2064   -7.5160 H         1 <0>         0.1328
     43 H6         14.3682    3.2726   -8.9568 H         1 <0>         0.1286
     44 H7         12.5371    2.0661  -10.0715 H         1 <0>         0.1308
     45 H8         10.2077    2.7877   -9.7506 H         1 <0>         0.1301
     46 H9          5.8545    7.1711   -7.4620 H         1 <0>         0.0932
     47 H10         7.3129    7.9033   -6.7513 H         1 <0>         0.0952
     48 H11         7.2399    6.2534   -4.9017 H         1 <0>         0.0661
     49 H12         5.7815    5.5212   -5.6124 H         1 <0>         0.0614
     50 H13         4.0322    8.9443   -3.3204 H         1 <0>         0.1302
     51 H14         3.2250    8.3643   -1.0685 H         1 <0>         0.1325
     52 H15         5.2372    4.6111   -1.3058 H         1 <0>         0.1317
     53 H16         6.0398    5.1792   -3.5624 H         1 <0>         0.1227
     54 H17         3.5662    7.0082    0.9139 H         1 <0>         0.0936
     55 H18         4.4022    5.4400    0.8131 H         1 <0>         0.0926
     56 H19         1.3301    7.1790   -0.1864 H         1 <0>         0.0853
     57 H20         0.3885    5.6771   -0.3474 H         1 <0>         0.0879
     58 H21         1.7278    1.9592    2.0872 H         1 <0>         0.1390
     59 H22         1.7624   -0.5016    2.1089 H         1 <0>         0.1366
     60 H23         0.6491   -0.5535   -2.0164 H         1 <0>         0.1330
     61 H24         0.6185    1.9074   -2.0390 H         1 <0>         0.1324
     62 H25         0.9521   -3.7835   -1.0153 H         1 <0>         0.0980
     63 H26        -0.1071   -2.4275   -1.4711 H         1 <0>         0.0552
     64 H27         1.6111   -2.4099   -1.9357 H         1 <0>         0.0546
     65 O7         -0.4576    7.0190    1.9232 O.co2     1 <0>        -0.7655
@<TRIPOS>BOND
     1    1    2 1
     2    1   38 1
     3    1   39 1
     4    1   40 1
     5    2    6 1
     6    2    3 2
     7    3    4 1
     8    3   13 1
     9    4    5 2
    10    5    6 1
    11    5    7 1
    12    7   12 ar
    13    7    8 ar
    14    8    9 ar
    15    8   41 1
    16    9   10 ar
    17    9   42 1
    18   10   11 ar
    19   10   43 1
    20   11   12 ar
    21   11   44 1
    22   12   45 1
    23   13   14 1
    24   13   46 1
    25   13   47 1
    26   14   15 1
    27   14   48 1
    28   14   49 1
    29   15   16 1
    30   16   21 ar
    31   16   17 ar
    32   17   18 ar
    33   17   50 1
    34   18   19 ar
    35   18   51 1
    36   19   20 ar
    37   19   22 1
    38   20   21 ar
    39   20   52 1
    40   21   53 1
    41   22   23 1
    42   22   54 1
    43   22   55 1
    44   23   24 1
    45   23   27 am
    46   24   25 1
    47   24   56 1
    48   24   57 1
    49   25   26 2
    50   25   65 1
    51   27   28 2
    52   27   29 1
    53   29   30 1
    54   30   35 ar
    55   30   31 ar
    56   31   32 ar
    57   31   58 1
    58   32   33 ar
    59   32   59 1
    60   33   34 ar
    61   33   36 1
    62   34   35 ar
    63   34   60 1
    64   35   61 1
    65   36   37 1
    66   37   62 1
    67   37   63 1
    68   37   64 1
@<TRIPOS>MOLECULE
ZINC22000022
   46    48     0     0     0
SMALL
USER_CHARGES
(5S)-5-[[4-[2-(4-ethylphenyl)ethoxy]phenyl]methyl]thiazolidine-2,4-dione
@<TRIPOS>ATOM
      1 C1         -0.7527    1.5927   -1.2315 C.3       1 <0>        -0.1491
      2 C2         -0.0127    1.0858    0.0080 C.3       1 <0>        -0.0890
      3 C3         -0.7181    1.5718    1.2479 C.ar      1 <0>        -0.0792
      4 C4         -0.3599    2.7788    1.8186 C.ar      1 <0>        -0.1163
      5 C5         -1.0099    3.2267    2.9534 C.ar      1 <0>        -0.1093
      6 C6         -2.0116    2.4630    3.5230 C.ar      1 <0>        -0.0917
      7 C7         -2.3665    1.2538    2.9550 C.ar      1 <0>        -0.1093
      8 C8         -1.7194    0.8079    1.8177 C.ar      1 <0>        -0.1163
      9 C9         -2.7170    2.9491    4.7629 C.3       1 <0>        -0.0790
     10 C10        -1.9776    2.4414    6.0024 C.3       1 <0>         0.0638
     11 O1         -2.6465    2.9022    7.1781 O.3       1 <0>        -0.3139
     12 C11        -2.1143    2.5370    8.3740 C.ar      1 <0>         0.1381
     13 C12        -0.9750    1.7464    8.4151 C.ar      1 <0>        -0.2079
     14 C13        -0.4324    1.3816    9.6320 C.ar      1 <0>        -0.0686
     15 C14        -1.0308    1.7935   10.8084 C.ar      1 <0>        -0.1363
     16 C15        -2.1696    2.5767   10.7702 C.ar      1 <0>        -0.0621
     17 C16        -2.7126    2.9493    9.5558 C.ar      1 <0>        -0.1496
     18 C17        -0.4406    1.3885   12.1346 C.3       1 <0>        -0.0591
     19 C18        -1.0583    0.0629   12.5842 C.3       1 <0>        -0.0929
     20 H1         -0.7884   -0.5686   11.7249 H         1 <0>         0.1675
     21 C19        -0.4039   -0.4483   13.8597 C.2       1 <0>         0.5349
     22 O2          0.7719   -0.7391   13.9131 O.2       1 <0>        -0.4650
     23 N1         -1.2063   -0.5539   14.9056 N.am      1 <0>        -0.7049
     24 C20        -2.5141   -0.2375   14.8694 C.2       1 <0>         0.5616
     25 O3         -3.3259   -0.3008   15.7722 O.2       1 <0>        -0.4203
     26 S1         -2.7786    0.2971   13.1852 S.3       1 <0>        -0.1209
     27 H2         -0.2378    1.2380   -2.1365 H         1 <0>         0.0597
     28 H3         -0.7676    2.6926   -1.2254 H         1 <0>         0.0563
     29 H4         -1.7847    1.2120   -1.2237 H         1 <0>         0.0563
     30 H5          0.0022   -0.0141    0.0019 H         1 <0>         0.0729
     31 H6          1.0193    1.4665    0.0002 H         1 <0>         0.0729
     32 H7          0.4255    3.3735    1.3760 H         1 <0>         0.1227
     33 H8         -0.7329    4.1716    3.3970 H         1 <0>         0.1230
     34 H9         -3.1490    0.6571    3.4000 H         1 <0>         0.1230
     35 H10        -1.9965   -0.1370    1.3742 H         1 <0>         0.1227
     36 H11        -2.7312    4.0490    4.7693 H         1 <0>         0.0853
     37 H12        -3.7492    2.5690    4.7703 H         1 <0>         0.0854
     38 H13        -1.9633    1.3415    5.9959 H         1 <0>         0.0655
     39 H14        -0.9454    2.8215    5.9950 H         1 <0>         0.0655
     40 H15        -0.5100    1.4204    7.4965 H         1 <0>         0.1293
     41 H16         0.4571    0.7699    9.6645 H         1 <0>         0.1274
     42 H17        -2.6348    2.8977   11.6905 H         1 <0>         0.1347
     43 H18        -3.6024    3.5608    9.5264 H         1 <0>         0.1336
     44 H19         0.6479    1.2691   12.0304 H         1 <0>         0.1039
     45 H20        -0.6542    2.1653   12.8836 H         1 <0>         0.0878
     46 H21        -0.8123   -0.9159   15.8667 H         1 <0>         0.4469
@<TRIPOS>BOND
     1    1    2 1
     2    1   27 1
     3    1   28 1
     4    1   29 1
     5    2    3 1
     6    2   30 1
     7    2   31 1
     8    3    8 ar
     9    3    4 ar
    10    4    5 ar
    11    4   32 1
    12    5    6 ar
    13    5   33 1
    14    6    7 ar
    15    6    9 1
    16    7    8 ar
    17    7   34 1
    18    8   35 1
    19    9   10 1
    20    9   36 1
    21    9   37 1
    22   10   11 1
    23   10   38 1
    24   10   39 1
    25   11   12 1
    26   12   17 ar
    27   12   13 ar
    28   13   14 ar
    29   13   40 1
    30   14   15 ar
    31   14   41 1
    32   15   16 ar
    33   15   18 1
    34   16   17 ar
    35   16   42 1
    36   17   43 1
    37   18   19 1
    38   18   44 1
    39   18   45 1
    40   19   20 1
    41   19   26 1
    42   19   21 1
    43   21   22 2
    44   21   23 am
    45   23   24 am
    46   23   46 1
    47   24   25 2
    48   24   26 1
@<TRIPOS>MOLECULE
ZINC22000027
   46    48     0     0     0
SMALL
USER_CHARGES
(5R)-5-[[4-[2-(4-ethylphenyl)ethoxy]phenyl]methyl]thiazolidine-2,4-dione
@<TRIPOS>ATOM
      1 C1         -0.7527    1.5927   -1.2315 C.3       1 <0>        -0.1490
      2 C2         -0.0127    1.0858    0.0080 C.3       1 <0>        -0.0891
      3 C3         -0.7181    1.5718    1.2479 C.ar      1 <0>        -0.0791
      4 C4         -0.3599    2.7788    1.8186 C.ar      1 <0>        -0.1163
      5 C5         -1.0096    3.2265    2.9537 C.ar      1 <0>        -0.1094
      6 C6         -2.0116    2.4630    3.5230 C.ar      1 <0>        -0.0918
      7 C7         -2.3665    1.2538    2.9550 C.ar      1 <0>        -0.1091
      8 C8         -1.7194    0.8079    1.8177 C.ar      1 <0>        -0.1162
      9 C9         -2.7166    2.9488    4.7631 C.3       1 <0>        -0.0788
     10 C10        -1.9768    2.4411    6.0024 C.3       1 <0>         0.0635
     11 O1         -2.6454    2.9018    7.1783 O.3       1 <0>        -0.3142
     12 C11        -2.1127    2.5365    8.3740 C.ar      1 <0>         0.1384
     13 C12        -0.9733    1.7461    8.4147 C.ar      1 <0>        -0.2067
     14 C13        -0.4307    1.3805    9.6314 C.ar      1 <0>        -0.0585
     15 C14        -1.0283    1.7929   10.8080 C.ar      1 <0>        -0.1371
     16 C15        -2.1672    2.5760   10.7702 C.ar      1 <0>        -0.0691
     17 C16        -2.7107    2.9486    9.5561 C.ar      1 <0>        -0.1515
     18 C17        -0.4376    1.3879   12.1339 C.3       1 <0>        -0.0578
     19 C18        -1.0549    0.0621   12.5836 C.3       1 <0>        -0.0927
     20 H1         -2.0940    0.3859   12.7433 H         1 <0>         0.1683
     21 C19        -0.4326   -0.4253   13.8843 C.2       1 <0>         0.5349
     22 O2         -0.5152    0.2034   14.9177 O.2       1 <0>        -0.4646
     23 N1          0.2047   -1.5816   13.8095 N.am      1 <0>        -0.7050
     24 C20         0.3095   -2.2963   12.6738 C.2       1 <0>         0.5603
     25 O3          0.8712   -3.3616   12.5075 O.2       1 <0>        -0.4211
     26 S1         -0.5691   -1.3139   11.4674 S.3       1 <0>        -0.1205
     27 H2         -0.2378    1.2380   -2.1365 H         1 <0>         0.0597
     28 H3         -0.7676    2.6926   -1.2254 H         1 <0>         0.0562
     29 H4         -1.7847    1.2120   -1.2237 H         1 <0>         0.0563
     30 H5          0.0022   -0.0141    0.0019 H         1 <0>         0.0730
     31 H6          1.0193    1.4665    0.0002 H         1 <0>         0.0728
     32 H7          0.4255    3.3735    1.3760 H         1 <0>         0.1226
     33 H8         -0.7321    4.1711    3.3977 H         1 <0>         0.1229
     34 H9         -3.1490    0.6571    3.4000 H         1 <0>         0.1230
     35 H10        -1.9965   -0.1370    1.3742 H         1 <0>         0.1227
     36 H11        -2.7310    4.0487    4.7696 H         1 <0>         0.0851
     37 H12        -3.7488    2.5686    4.7708 H         1 <0>         0.0852
     38 H13        -1.9624    1.3412    5.9959 H         1 <0>         0.0661
     39 H14        -0.9446    2.8213    5.9947 H         1 <0>         0.0657
     40 H15        -0.5085    1.4203    7.4959 H         1 <0>         0.1296
     41 H16         0.4585    0.7683    9.6635 H         1 <0>         0.1303
     42 H17        -2.6322    2.8968   11.6907 H         1 <0>         0.1319
     43 H18        -3.6001    3.5605    9.5271 H         1 <0>         0.1329
     44 H19         0.6509    1.2688   12.0293 H         1 <0>         0.0848
     45 H20        -0.6511    2.1646   12.8830 H         1 <0>         0.1048
     46 H21         0.6830   -2.0050   14.7051 H         1 <0>         0.4466
@<TRIPOS>BOND
     1    1    2 1
     2    1   27 1
     3    1   28 1
     4    1   29 1
     5    2    3 1
     6    2   30 1
     7    2   31 1
     8    3    8 ar
     9    3    4 ar
    10    4    5 ar
    11    4   32 1
    12    5    6 ar
    13    5   33 1
    14    6    7 ar
    15    6    9 1
    16    7    8 ar
    17    7   34 1
    18    8   35 1
    19    9   10 1
    20    9   36 1
    21    9   37 1
    22   10   11 1
    23   10   38 1
    24   10   39 1
    25   11   12 1
    26   12   17 ar
    27   12   13 ar
    28   13   14 ar
    29   13   40 1
    30   14   15 ar
    31   14   41 1
    32   15   16 ar
    33   15   18 1
    34   16   17 ar
    35   16   42 1
    36   17   43 1
    37   18   19 1
    38   18   44 1
    39   18   45 1
    40   19   20 1
    41   19   26 1
    42   19   21 1
    43   21   22 2
    44   21   23 am
    45   23   24 am
    46   23   46 1
    47   24   25 2
    48   24   26 1
@<TRIPOS>MOLECULE
ZINC28526494
   52    52     0     0     0
SMALL
USER_CHARGES
methyl (8S)-8-hydroxy-8-(2-pentoxyphenyl)oct-5-ynoate
@<TRIPOS>ATOM
      1 C1         -7.3638   -0.2102    0.0741 C.3       1 <0>        -0.1558
      2 C2         -6.0687   -1.0246    0.0568 C.3       1 <0>        -0.1247
      3 C3         -4.8691   -0.0750    0.0500 C.3       1 <0>        -0.1182
      4 C4         -3.5740   -0.8895    0.0328 C.3       1 <0>        -0.1203
      5 C5         -2.3744    0.0601    0.0260 C.3       1 <0>         0.0568
      6 O1         -1.1648   -0.7006    0.0099 O.3       1 <0>        -0.3135
      7 C6          0.0021   -0.0041    0.0020 C.ar      1 <0>         0.1397
      8 C7         -0.0167    1.3833    0.0096 C.ar      1 <0>        -0.2107
      9 C8          1.1706    2.0890    0.0021 C.ar      1 <0>        -0.0764
     10 C9          2.3774    1.4139   -0.0126 C.ar      1 <0>        -0.1608
     11 C10         2.3989    0.0317   -0.0207 C.ar      1 <0>        -0.0531
     12 C11         1.2139   -0.6788   -0.0132 C.ar      1 <0>        -0.1197
     13 C12         1.2380   -2.1856   -0.0220 C.3       1 <0>         0.1763
     14 H1          0.4303   -2.5789   -0.6567 H         1 <0>         0.0672
     15 C13         1.1339   -2.7058    1.4131 C.3       1 <0>        -0.0319
     16 C14         1.0366   -4.1745    1.3968 C.1       1 <0>        -0.1804
     17 C15         0.9591   -5.3458    1.3839 C.1       1 <0>        -0.1830
     18 C16         0.8618   -6.8145    1.3676 C.3       1 <0>        -0.0057
     19 C17         0.7577   -7.3347    2.8027 C.3       1 <0>        -0.1070
     20 C18         0.6566   -8.8612    2.7858 C.3       1 <0>        -0.1164
     21 C19         0.5541   -9.3735    4.1994 C.2       1 <0>         0.4584
     22 O2          0.5611   -8.5973    5.1253 O.2       1 <0>        -0.5062
     23 O3          0.4549  -10.6922    4.4298 O.3       1 <0>        -0.3612
     24 C20         0.3598  -11.1138    5.8159 C.3       1 <0>         0.0311
     25 O4          2.4611   -2.6391   -0.6055 O.3       1 <0>        -0.5932
     26 H2         -8.2262   -0.8930    0.0790 H         1 <0>         0.0559
     27 H3         -7.4071    0.4288   -0.8202 H         1 <0>         0.0547
     28 H4         -7.3892    0.4191    0.9760 H         1 <0>         0.0546
     29 H5         -6.0254   -1.6636    0.9511 H         1 <0>         0.0635
     30 H6         -6.0433   -1.6539   -0.8450 H         1 <0>         0.0635
     31 H7         -4.9123    0.5639   -0.8444 H         1 <0>         0.0658
     32 H8         -4.8945    0.5544    0.9518 H         1 <0>         0.0658
     33 H9         -3.5308   -1.5285    0.9272 H         1 <0>         0.0745
     34 H10        -3.5486   -1.5189   -0.8690 H         1 <0>         0.0745
     35 H11        -2.4177    0.6991   -0.8683 H         1 <0>         0.0634
     36 H12        -2.3998    0.6894    0.9278 H         1 <0>         0.0638
     37 H13        -0.9590    1.9110    0.0170 H         1 <0>         0.1292
     38 H14         1.1565    3.1689    0.0080 H         1 <0>         0.1256
     39 H15         3.3047    1.9675   -0.0185 H         1 <0>         0.1256
     40 H16         3.3426   -0.4933   -0.0325 H         1 <0>         0.1368
     41 H17         2.0280   -2.4038    1.9783 H         1 <0>         0.0951
     42 H18         0.2377   -2.2842    1.8918 H         1 <0>         0.0960
     43 H19        -0.0322   -7.1165    0.8024 H         1 <0>         0.0896
     44 H20         1.7580   -7.2361    0.8889 H         1 <0>         0.0910
     45 H21         1.6517   -7.0327    3.3679 H         1 <0>         0.0780
     46 H22        -0.1385   -6.9132    3.2814 H         1 <0>         0.0769
     47 H23        -0.2375   -9.1632    2.2206 H         1 <0>         0.1107
     48 H24         1.5528   -9.2828    2.3071 H         1 <0>         0.1112
     49 H25         0.2844  -12.2103    5.8613 H         1 <0>         0.1042
     50 H26        -0.5336  -10.6655    6.2750 H         1 <0>         0.0644
     51 H27         1.2566  -10.7850    6.3615 H         1 <0>         0.0646
     52 H28         2.6597   -3.7170   -0.6984 H         1 <0>         0.4097
@<TRIPOS>BOND
     1    1    2 1
     2    1   26 1
     3    1   27 1
     4    1   28 1
     5    2    3 1
     6    2   29 1
     7    2   30 1
     8    3    4 1
     9    3   31 1
    10    3   32 1
    11    4    5 1
    12    4   33 1
    13    4   34 1
    14    5    6 1
    15    5   35 1
    16    5   36 1
    17    6    7 1
    18    7   12 ar
    19    7    8 ar
    20    8    9 ar
    21    8   37 1
    22    9   10 ar
    23    9   38 1
    24   10   11 ar
    25   10   39 1
    26   11   12 ar
    27   11   40 1
    28   12   13 1
    29   13   14 1
    30   13   15 1
    31   13   25 1
    32   15   16 1
    33   15   41 1
    34   15   42 1
    35   16   17 3
    36   17   18 1
    37   18   19 1
    38   18   43 1
    39   18   44 1
    40   19   20 1
    41   19   45 1
    42   19   46 1
    43   20   21 1
    44   20   47 1
    45   20   48 1
    46   21   22 2
    47   21   23 1
    48   23   24 1
    49   24   49 1
    50   24   50 1
    51   24   51 1
    52   25   52 1
@<TRIPOS>MOLECULE
ZINC28526495
   52    52     0     0     0
SMALL
USER_CHARGES
methyl (8R)-8-hydroxy-8-(2-pentoxyphenyl)oct-5-ynoate
@<TRIPOS>ATOM
      1 C1          2.1009   -4.7640   -6.2542 C.3       1 <0>        -0.1558
      2 C2          2.0361   -4.0605   -4.8970 C.3       1 <0>        -0.1248
      3 C3          1.1412   -2.8243   -5.0055 C.3       1 <0>        -0.1181
      4 C4          1.0764   -2.1209   -3.6484 C.3       1 <0>        -0.1203
      5 C5          0.1815   -0.8847   -3.7568 C.3       1 <0>         0.0568
      6 O1          0.1210   -0.2277   -2.4893 O.3       1 <0>        -0.3135
      7 C6         -0.6382    0.8969   -2.4128 C.ar      1 <0>         0.1398
      8 C7         -1.3109    1.3588   -3.5350 C.ar      1 <0>        -0.2107
      9 C8         -2.0816    2.5022   -3.4548 C.ar      1 <0>        -0.0763
     10 C9         -2.1834    3.1863   -2.2573 C.ar      1 <0>        -0.1610
     11 C10        -1.5179    2.7254   -1.1365 C.ar      1 <0>        -0.0531
     12 C11        -0.7416    1.5850   -1.2129 C.ar      1 <0>        -0.1199
     13 C12        -0.0127    1.0858    0.0080 C.3       1 <0>         0.1764
     14 H1         -0.0404   -0.0131    0.0493 H         1 <0>         0.0672
     15 C13         1.4227    1.6154   -0.0028 C.3       1 <0>        -0.0318
     16 C14         2.1693    1.0323    1.1238 C.1       1 <0>        -0.1803
     17 C15         2.7648    0.5673    2.0223 C.1       1 <0>        -0.1830
     18 C16         3.5115   -0.0158    3.1490 C.3       1 <0>        -0.0056
     19 C17         4.9469    0.5138    3.1381 C.3       1 <0>        -0.1071
     20 C18         5.7230   -0.0922    4.3092 C.3       1 <0>        -0.1163
     21 C19         7.1368    0.4294    4.2985 C.2       1 <0>         0.4584
     22 O2          7.4876    1.2062    3.4421 O.2       1 <0>        -0.5064
     23 O3          8.0062    0.0310    5.2403 O.3       1 <0>        -0.3611
     24 C20         9.3509    0.5742    5.1681 C.3       1 <0>         0.0311
     25 O4         -0.6816    1.5467    1.1837 O.3       1 <0>        -0.5932
     26 H2          2.7443   -5.6528   -6.1761 H         1 <0>         0.0558
     27 H3          2.5163   -4.0754   -7.0047 H         1 <0>         0.0547
     28 H4          1.0887   -5.0696   -6.5575 H         1 <0>         0.0547
     29 H5          1.6207   -4.7491   -4.1465 H         1 <0>         0.0635
     30 H6          3.0483   -3.7549   -4.5937 H         1 <0>         0.0635
     31 H7          1.5566   -2.1357   -5.7560 H         1 <0>         0.0658
     32 H8          0.1290   -3.1299   -5.3088 H         1 <0>         0.0658
     33 H9          0.6610   -2.8096   -2.8980 H         1 <0>         0.0745
     34 H10         2.0886   -1.8153   -3.3451 H         1 <0>         0.0745
     35 H11         0.5969   -0.1960   -4.5073 H         1 <0>         0.0638
     36 H12        -0.8308   -1.1903   -4.0601 H         1 <0>         0.0635
     37 H13        -1.2323    0.8246   -4.4703 H         1 <0>         0.1293
     38 H14        -2.6053    2.8622   -4.3280 H         1 <0>         0.1256
     39 H15        -2.7870    4.0797   -2.1964 H         1 <0>         0.1256
     40 H16        -1.6020    3.2593   -0.2015 H         1 <0>         0.1368
     41 H17         1.9094    1.3362   -0.9489 H         1 <0>         0.0962
     42 H18         1.4100    2.7111    0.0936 H         1 <0>         0.0948
     43 H19         3.0248    0.2635    4.0951 H         1 <0>         0.0909
     44 H20         3.5242   -1.1115    3.0526 H         1 <0>         0.0898
     45 H21         5.4336    0.2345    2.1920 H         1 <0>         0.0770
     46 H22         4.9342    1.6095    3.2344 H         1 <0>         0.0775
     47 H23         5.2363    0.1871    5.2553 H         1 <0>         0.1112
     48 H24         5.7357   -1.1879    4.2129 H         1 <0>         0.1109
     49 H25         9.9551    0.1683    5.9928 H         1 <0>         0.1043
     50 H26         9.3084    1.6703    5.2497 H         1 <0>         0.0646
     51 H27         9.8078    0.2955    4.2071 H         1 <0>         0.0644
     52 H28        -0.2927    1.2808    2.1777 H         1 <0>         0.4096
@<TRIPOS>BOND
     1    1    2 1
     2    1   26 1
     3    1   27 1
     4    1   28 1
     5    2    3 1
     6    2   29 1
     7    2   30 1
     8    3    4 1
     9    3   31 1
    10    3   32 1
    11    4    5 1
    12    4   33 1
    13    4   34 1
    14    5    6 1
    15    5   35 1
    16    5   36 1
    17    6    7 1
    18    7   12 ar
    19    7    8 ar
    20    8    9 ar
    21    8   37 1
    22    9   10 ar
    23    9   38 1
    24   10   11 ar
    25   10   39 1
    26   11   12 ar
    27   11   40 1
    28   12   13 1
    29   13   14 1
    30   13   15 1
    31   13   25 1
    32   15   16 1
    33   15   41 1
    34   15   42 1
    35   16   17 3
    36   17   18 1
    37   18   19 1
    38   18   43 1
    39   18   44 1
    40   19   20 1
    41   19   45 1
    42   19   46 1
    43   20   21 1
    44   20   47 1
    45   20   48 1
    46   21   22 2
    47   21   23 1
    48   23   24 1
    49   24   49 1
    50   24   50 1
    51   24   51 1
    52   25   52 1
@<TRIPOS>MOLECULE
ZINC27646258
   56    56     0     0     0
SMALL
USER_CHARGES
methyl (8S)-8-hydroxy-8-(2-pentoxyphenyl)octanoate
@<TRIPOS>ATOM
      1 C1          3.9728    8.9095    3.3940 C.3       1 <0>        -0.1559
      2 C2          3.5977    7.5354    2.8353 C.3       1 <0>        -0.1245
      3 C3          2.5207    6.9024    3.7186 C.3       1 <0>        -0.1184
      4 C4          2.1456    5.5283    3.1599 C.3       1 <0>        -0.1195
      5 C5          1.0686    4.8953    4.0432 C.3       1 <0>         0.0568
      6 O1          0.7183    3.6119    3.5214 O.3       1 <0>        -0.3129
      7 C6         -0.2321    2.9109    4.1939 C.ar      1 <0>         0.1374
      8 C7         -0.8194    3.4496    5.3298 C.ar      1 <0>        -0.2110
      9 C8         -1.7810    2.7327    6.0148 C.ar      1 <0>        -0.0793
     10 C9         -2.1626    1.4815    5.5661 C.ar      1 <0>        -0.1611
     11 C10        -1.5828    0.9449    4.4317 C.ar      1 <0>        -0.0562
     12 C11        -0.6205    1.6580    3.7429 C.ar      1 <0>        -0.1160
     13 C12         0.0111    1.0724    2.5063 C.3       1 <0>         0.1684
     14 H1          1.0826    1.3183    2.4690 H         1 <0>         0.0625
     15 C13        -0.7288    1.5792    1.2668 C.3       1 <0>        -0.1423
     16 C14        -0.0127    1.0858    0.0080 C.3       1 <0>        -0.1202
     17 C15        -0.7527    1.5927   -1.2315 C.3       1 <0>        -0.1192
     18 C16        -0.0366    1.0992   -2.4903 C.3       1 <0>        -0.1197
     19 C17        -0.7766    1.6061   -3.7298 C.3       1 <0>        -0.1116
     20 C18        -0.0604    1.1126   -4.9886 C.3       1 <0>        -0.1160
     21 C19        -0.7893    1.6119   -6.2095 C.2       1 <0>         0.4576
     22 O2         -1.7799    2.2925   -6.0856 O.2       1 <0>        -0.5075
     23 O3         -0.3380    1.3004   -7.4347 O.3       1 <0>        -0.3620
     24 C20        -1.0900    1.8157   -8.5649 C.3       1 <0>         0.0310
     25 O4         -0.0698   -0.3533    2.5597 O.3       1 <0>        -0.5964
     26 H2          4.7471    9.3646    2.7589 H         1 <0>         0.0559
     27 H3          4.3583    8.7962    4.4180 H         1 <0>         0.0547
     28 H4          3.0826    9.5556    3.4067 H         1 <0>         0.0546
     29 H5          3.2122    7.6487    1.8113 H         1 <0>         0.0635
     30 H6          4.4879    6.8893    2.8225 H         1 <0>         0.0635
     31 H7          2.9062    6.7891    4.7426 H         1 <0>         0.0656
     32 H8          1.6305    7.5485    3.7314 H         1 <0>         0.0656
     33 H9          1.7601    5.6416    2.1359 H         1 <0>         0.0745
     34 H10         3.0358    4.8822    3.1471 H         1 <0>         0.0743
     35 H11         1.4541    4.7820    5.0672 H         1 <0>         0.0626
     36 H12         0.1784    5.5414    4.0560 H         1 <0>         0.0629
     37 H13        -0.5219    4.4268    5.6804 H         1 <0>         0.1282
     38 H14        -2.2354    3.1497    6.9013 H         1 <0>         0.1247
     39 H15        -2.9147    0.9225    6.1031 H         1 <0>         0.1245
     40 H16        -1.8826   -0.0324    4.0833 H         1 <0>         0.1352
     41 H17        -1.7608    1.1985    1.2746 H         1 <0>         0.0705
     42 H18        -0.7437    2.6791    1.2728 H         1 <0>         0.0722
     43 H19         1.0193    1.4665    0.0002 H         1 <0>         0.0637
     44 H20         0.0022   -0.0141    0.0019 H         1 <0>         0.0625
     45 H21        -1.7847    1.2120   -1.2236 H         1 <0>         0.0639
     46 H22        -0.7676    2.6926   -1.2255 H         1 <0>         0.0635
     47 H23         0.9954    1.4799   -2.4981 H         1 <0>         0.0653
     48 H24        -0.0217   -0.0007   -2.4963 H         1 <0>         0.0657
     49 H25        -1.8086    1.2254   -3.7220 H         1 <0>         0.0726
     50 H26        -0.7915    2.7060   -3.7237 H         1 <0>         0.0723
     51 H27         0.9716    1.4933   -4.9963 H         1 <0>         0.1073
     52 H28        -0.0455    0.0127   -4.9946 H         1 <0>         0.1075
     53 H29        -0.6149    1.4882   -9.5014 H         1 <0>         0.1038
     54 H30        -1.1038    2.9149   -8.5256 H         1 <0>         0.0642
     55 H31        -2.1210    1.4343   -8.5239 H         1 <0>         0.0643
     56 H32         0.3416   -0.9587    1.7386 H         1 <0>         0.4063
@<TRIPOS>BOND
     1    1    2 1
     2    1   26 1
     3    1   27 1
     4    1   28 1
     5    2    3 1
     6    2   29 1
     7    2   30 1
     8    3    4 1
     9    3   31 1
    10    3   32 1
    11    4    5 1
    12    4   33 1
    13    4   34 1
    14    5    6 1
    15    5   35 1
    16    5   36 1
    17    6    7 1
    18    7   12 ar
    19    7    8 ar
    20    8    9 ar
    21    8   37 1
    22    9   10 ar
    23    9   38 1
    24   10   11 ar
    25   10   39 1
    26   11   12 ar
    27   11   40 1
    28   12   13 1
    29   13   14 1
    30   13   15 1
    31   13   25 1
    32   15   16 1
    33   15   41 1
    34   15   42 1
    35   16   17 1
    36   16   43 1
    37   16   44 1
    38   17   18 1
    39   17   45 1
    40   17   46 1
    41   18   19 1
    42   18   47 1
    43   18   48 1
    44   19   20 1
    45   19   49 1
    46   19   50 1
    47   20   21 1
    48   20   51 1
    49   20   52 1
    50   21   22 2
    51   21   23 1
    52   23   24 1
    53   24   53 1
    54   24   54 1
    55   24   55 1
    56   25   56 1
@<TRIPOS>MOLECULE
ZINC27646264
   56    56     0     0     0
SMALL
USER_CHARGES
methyl (8R)-8-hydroxy-8-(2-pentoxyphenyl)octanoate
@<TRIPOS>ATOM
      1 C1          2.1009   -4.7640   -6.2542 C.3       1 <0>        -0.1559
      2 C2          2.0361   -4.0605   -4.8970 C.3       1 <0>        -0.1245
      3 C3          1.1412   -2.8243   -5.0055 C.3       1 <0>        -0.1184
      4 C4          1.0764   -2.1209   -3.6484 C.3       1 <0>        -0.1195
      5 C5          0.1815   -0.8847   -3.7568 C.3       1 <0>         0.0568
      6 O1          0.1210   -0.2277   -2.4893 O.3       1 <0>        -0.3129
      7 C6         -0.6382    0.8969   -2.4128 C.ar      1 <0>         0.1374
      8 C7         -1.3109    1.3588   -3.5350 C.ar      1 <0>        -0.2110
      9 C8         -2.0816    2.5022   -3.4548 C.ar      1 <0>        -0.0794
     10 C9         -2.1834    3.1863   -2.2573 C.ar      1 <0>        -0.1610
     11 C10        -1.5179    2.7254   -1.1365 C.ar      1 <0>        -0.0562
     12 C11        -0.7416    1.5850   -1.2129 C.ar      1 <0>        -0.1160
     13 C12        -0.0127    1.0858    0.0080 C.3       1 <0>         0.1685
     14 H1         -0.0404   -0.0131    0.0493 H         1 <0>         0.0625
     15 C13         1.4227    1.6154   -0.0028 C.3       1 <0>        -0.1423
     16 C14         2.1988    1.0094    1.1682 C.3       1 <0>        -0.1201
     17 C15         3.6341    1.5389    1.1573 C.3       1 <0>        -0.1192
     18 C16         4.4102    0.9329    2.3284 C.3       1 <0>        -0.1197
     19 C17         5.8456    1.4625    2.3175 C.3       1 <0>        -0.1116
     20 C18         6.6217    0.8564    3.4885 C.3       1 <0>        -0.1160
     21 C19         8.0355    1.3780    3.4778 C.2       1 <0>         0.4576
     22 O2          8.3864    2.1548    2.6214 O.2       1 <0>        -0.5075
     23 O3          8.9050    0.9797    4.4197 O.3       1 <0>        -0.3620
     24 C20        10.2496    1.5228    4.3475 C.3       1 <0>         0.0310
     25 O4         -0.6816    1.5467    1.1837 O.3       1 <0>        -0.5964
     26 H2          2.7443   -5.6528   -6.1761 H         1 <0>         0.0559
     27 H3          2.5163   -4.0754   -7.0047 H         1 <0>         0.0546
     28 H4          1.0887   -5.0696   -6.5575 H         1 <0>         0.0547
     29 H5          1.6207   -4.7491   -4.1465 H         1 <0>         0.0635
     30 H6          3.0483   -3.7549   -4.5937 H         1 <0>         0.0635
     31 H7          1.5566   -2.1357   -5.7560 H         1 <0>         0.0656
     32 H8          0.1290   -3.1299   -5.3088 H         1 <0>         0.0656
     33 H9          0.6610   -2.8096   -2.8980 H         1 <0>         0.0743
     34 H10         2.0886   -1.8153   -3.3451 H         1 <0>         0.0744
     35 H11         0.5969   -0.1960   -4.5073 H         1 <0>         0.0628
     36 H12        -0.8308   -1.1903   -4.0601 H         1 <0>         0.0626
     37 H13        -1.2323    0.8246   -4.4703 H         1 <0>         0.1282
     38 H14        -2.6053    2.8622   -4.3280 H         1 <0>         0.1247
     39 H15        -2.7870    4.0797   -2.1964 H         1 <0>         0.1244
     40 H16        -1.6020    3.2593   -0.2015 H         1 <0>         0.1353
     41 H17         1.9094    1.3362   -0.9489 H         1 <0>         0.0722
     42 H18         1.4100    2.7111    0.0936 H         1 <0>         0.0705
     43 H19         1.7121    1.2887    2.1143 H         1 <0>         0.0624
     44 H20         2.2115   -0.0863    1.0719 H         1 <0>         0.0637
     45 H21         4.1208    1.2596    0.2112 H         1 <0>         0.0635
     46 H22         3.6215    2.6346    1.2536 H         1 <0>         0.0638
     47 H23         3.9235    1.2122    3.2745 H         1 <0>         0.0657
     48 H24         4.4229   -0.1628    2.2321 H         1 <0>         0.0653
     49 H25         6.3322    1.1833    1.3713 H         1 <0>         0.0723
     50 H26         5.8329    2.5582    2.4139 H         1 <0>         0.0726
     51 H27         6.1350    1.1356    4.4346 H         1 <0>         0.1075
     52 H28         6.6344   -0.2393    3.3921 H         1 <0>         0.1073
     53 H29        10.8537    1.1169    5.1723 H         1 <0>         0.1039
     54 H30        10.2071    2.6190    4.4290 H         1 <0>         0.0643
     55 H31        10.7065    1.2440    3.3865 H         1 <0>         0.0642
     56 H32        -0.2927    1.2808    2.1777 H         1 <0>         0.4063
@<TRIPOS>BOND
     1    1    2 1
     2    1   26 1
     3    1   27 1
     4    1   28 1
     5    2    3 1
     6    2   29 1
     7    2   30 1
     8    3    4 1
     9    3   31 1
    10    3   32 1
    11    4    5 1
    12    4   33 1
    13    4   34 1
    14    5    6 1
    15    5   35 1
    16    5   36 1
    17    6    7 1
    18    7   12 ar
    19    7    8 ar
    20    8    9 ar
    21    8   37 1
    22    9   10 ar
    23    9   38 1
    24   10   11 ar
    25   10   39 1
    26   11   12 ar
    27   11   40 1
    28   12   13 1
    29   13   14 1
    30   13   15 1
    31   13   25 1
    32   15   16 1
    33   15   41 1
    34   15   42 1
    35   16   17 1
    36   16   43 1
    37   16   44 1
    38   17   18 1
    39   17   45 1
    40   17   46 1
    41   18   19 1
    42   18   47 1
    43   18   48 1
    44   19   20 1
    45   19   49 1
    46   19   50 1
    47   20   21 1
    48   20   51 1
    49   20   52 1
    50   21   22 2
    51   21   23 1
    52   23   24 1
    53   24   53 1
    54   24   54 1
    55   24   55 1
    56   25   56 1
@<TRIPOS>MOLECULE
ZINC24800189
   46    49     0     0     0
SMALL
USER_CHARGES

@<TRIPOS>ATOM
      1 C1         -0.0163    1.3532    0.0095 C.2       1 <0>        -0.1513
      2 C2          1.1779    2.0409    0.0018 C.2       1 <0>        -0.1508
      3 C3          2.3471    1.3290   -0.0132 C.2       1 <0>        -0.0493
      4 S1          1.7524   -0.3545   -0.0166 S.3       1 <0>         0.0780
      5 C4          0.0021   -0.0041    0.0020 C.2       1 <0>        -0.1950
      6 C5          3.7400    1.8251   -0.0243 C.2       1 <0>         0.1840
      7 C6          4.9019    1.0274   -0.0453 C.2       1 <0>        -0.4059
      8 C7          5.9766    1.8592   -0.0499 C.2       1 <0>         0.4488
      9 N1          5.5103    3.1388   -0.0324 N.pl3     1 <0>        -0.3423
     10 N2          4.1106    3.0902   -0.0219 N.2       1 <0>        -0.3170
     11 C8          6.2938    4.3005   -0.0299 C.ar      1 <0>         0.1887
     12 C9          7.5091    4.3180    0.6417 C.ar      1 <0>        -0.0797
     13 C10         8.2800    5.4638    0.6426 C.ar      1 <0>        -0.1378
     14 C11         7.8416    6.5950   -0.0252 C.ar      1 <0>         0.0718
     15 C12         6.6297    6.5798   -0.6952 C.ar      1 <0>        -0.1412
     16 C13         5.8587    5.4341   -0.7037 C.ar      1 <0>        -0.1010
     17 F1          8.5970    7.7151   -0.0228 F         1 <0>        -0.1468
     18 N3          7.3137    1.4729   -0.0684 N.2       1 <0>        -1.0885
     19 S2          7.7109   -0.1347   -0.0879 S.o2      1 <0>         2.6315
     20 O1          7.2875   -0.6727    1.1573 O.2       1 <0>        -1.0058
     21 O2          7.2598   -0.6494   -1.3332 O.2       1 <0>        -1.0059
     22 C14         9.4698   -0.2365   -0.1084 C.ar      1 <0>        -0.6226
     23 C15        10.1468   -0.2595   -1.3134 C.ar      1 <0>         0.0594
     24 C16        11.5268   -0.3393   -1.3295 C.ar      1 <0>        -0.2110
     25 C17        12.2298   -0.3957   -0.1406 C.ar      1 <0>         0.0147
     26 C18        11.5528   -0.3718    1.0644 C.ar      1 <0>        -0.2112
     27 C19        10.1731   -0.2876    1.0806 C.ar      1 <0>         0.0598
     28 C20        12.3192   -0.4337    2.3605 C.3       1 <0>         0.5159
     29 F2         13.6894   -0.5105    2.0889 F         1 <0>        -0.1755
     30 F3         12.0567    0.7162    3.1129 F         1 <0>        -0.1693
     31 F4         11.9229   -1.5642    3.0831 F         1 <0>        -0.1707
     32 C21        12.2647   -0.3654   -2.6432 C.3       1 <0>         0.5155
     33 F5         12.5695    0.9431   -3.0330 F         1 <0>        -0.1706
     34 F6         13.4486   -1.0966   -2.4986 F         1 <0>        -0.1752
     35 F7         11.4612   -0.9671   -3.6176 F         1 <0>        -0.1695
     36 H1         -0.9549    1.8873    0.0258 H         1 <0>         0.1308
     37 H2          1.1912    3.1208    0.0071 H         1 <0>         0.1371
     38 H3         -0.8285   -0.6944    0.0065 H         1 <0>         0.1834
     39 H4          4.9327   -0.0521   -0.0555 H         1 <0>         0.1337
     40 H5          7.8511    3.4362    1.1632 H         1 <0>         0.1557
     41 H6          9.2253    5.4778    1.1648 H         1 <0>         0.1361
     42 H7          6.2892    7.4632   -1.2148 H         1 <0>         0.1345
     43 H8          4.9159    5.4211   -1.2303 H         1 <0>         0.1371
     44 H9          9.5976   -0.2154   -2.2423 H         1 <0>         0.1615
     45 H10        13.3078   -0.4588   -0.1532 H         1 <0>         0.1556
     46 H11         9.6445   -0.2651    2.0221 H         1 <0>         0.1600
@<TRIPOS>BOND
     1    1    5 2
     2    1    2 1
     3    1   36 1
     4    2    3 2
     5    2   37 1
     6    3    4 1
     7    3    6 1
     8    4    5 1
     9    5   38 1
    10    6   10 2
    11    6    7 1
    12    7    8 2
    13    7   39 1
    14    8    9 1
    15    8   18 1
    16    9   10 1
    17    9   11 1
    18   11   16 ar
    19   11   12 ar
    20   12   13 ar
    21   12   40 1
    22   13   14 ar
    23   13   41 1
    24   14   15 ar
    25   14   17 1
    26   15   16 ar
    27   15   42 1
    28   16   43 1
    29   18   19 1
    30   19   20 2
    31   19   21 2
    32   19   22 1
    33   22   27 ar
    34   22   23 ar
    35   23   24 ar
    36   23   44 1
    37   24   25 ar
    38   24   32 1
    39   25   26 ar
    40   25   45 1
    41   26   27 ar
    42   26   28 1
    43   27   46 1
    44   28   29 1
    45   28   30 1
    46   28   31 1
    47   32   33 1
    48   32   34 1
    49   32   35 1
@<TRIPOS>MOLECULE
ZINC24800189
   47    50     0     0     0
SMALL
USER_CHARGES

@<TRIPOS>ATOM
      1 C1          0.4114    2.5554   -1.1483 C.2       1 <0>        -0.1623
      2 C2          1.7028    3.0337   -1.0951 C.2       1 <0>        -0.1111
      3 C3          2.7185    2.1570   -0.8231 C.2       1 <0>        -0.1046
      4 S1          1.8348    0.6170   -0.6365 S.3       1 <0>         0.0892
      5 C4          0.1858    1.2348   -0.9302 C.2       1 <0>        -0.1579
      6 C5          4.1698    2.4177   -0.7129 C.2       1 <0>         0.2026
      7 C6          5.1636    1.4579   -0.4337 C.2       1 <0>        -0.2974
      8 C7          6.3637    2.0953   -0.4186 C.2       1 <0>         0.3459
      9 N1          6.1367    3.4127   -0.6793 N.pl3     1 <0>        -0.3237
     10 N2          4.7594    3.5870   -0.8644 N.2       1 <0>        -0.2529
     11 C8          7.1110    4.4170   -0.7536 C.ar      1 <0>         0.1394
     12 C9          8.2241    4.3686    0.0753 C.ar      1 <0>        -0.1173
     13 C10         9.1834    5.3592    0.0002 C.ar      1 <0>        -0.1242
     14 C11         9.0357    6.4005   -0.9007 C.ar      1 <0>         0.1049
     15 C12         7.9262    6.4509   -1.7279 C.ar      1 <0>        -0.1270
     16 C13         6.9677    5.4590   -1.6602 C.ar      1 <0>        -0.0747
     17 F1          9.9751    7.3688   -0.9723 F         1 <0>        -0.1294
     18 N3          7.6025    1.5075   -0.1790 N.pl3     1 <0>        -1.0323
     19 S2          7.7138   -0.1306    0.0371 S.o2      1 <0>         2.6948
     20 O1          9.0930   -0.4243    0.2125 O.2       1 <0>        -0.9181
     21 O2          6.7316   -0.4805    1.0026 O.2       1 <0>        -0.9119
     22 C14         7.2256   -0.8901   -1.4760 C.ar      1 <0>        -0.6863
     23 C15         5.9250   -1.3280   -1.6414 C.ar      1 <0>         0.0624
     24 C16         5.5419   -1.9238   -2.8285 C.ar      1 <0>        -0.1981
     25 C17         6.4595   -2.0813   -3.8503 C.ar      1 <0>         0.0373
     26 C18         7.7599   -1.6425   -3.6853 C.ar      1 <0>        -0.2012
     27 C19         8.1418   -1.0428   -2.4998 C.ar      1 <0>         0.0656
     28 C20         8.7603   -1.8146   -4.7991 C.3       1 <0>         0.5144
     29 F2          8.1426   -2.4382   -5.8885 F         1 <0>        -0.1688
     30 F3          9.2421   -0.5610   -5.1911 F         1 <0>        -0.1682
     31 F4          9.8250   -2.6043   -4.3518 F         1 <0>        -0.1660
     32 C21         4.1243   -2.4022   -3.0084 C.3       1 <0>         0.5122
     33 F5          3.3488   -1.3702   -3.5477 F         1 <0>        -0.1631
     34 F6          4.1089   -3.4994   -3.8762 F         1 <0>        -0.1691
     35 F7          3.5990   -2.7810   -1.7683 F         1 <0>        -0.1652
     36 H1         -0.4111    3.2236   -1.3564 H         1 <0>         0.1407
     37 H2          1.9096    4.0800   -1.2652 H         1 <0>         0.1408
     38 H3         -0.7504    0.6964   -0.9331 H         1 <0>         0.1922
     39 H4          5.0004    0.4042   -0.2621 H         1 <0>         0.1647
     40 H5          8.3392    3.5571    0.7785 H         1 <0>         0.1396
     41 H6         10.0492    5.3219    0.6447 H         1 <0>         0.1525
     42 H7          7.8126    7.2642   -2.4293 H         1 <0>         0.1507
     43 H8          6.1050    5.4961   -2.3089 H         1 <0>         0.1493
     44 H9          5.2081   -1.2050   -0.8430 H         1 <0>         0.1678
     45 H10         6.1604   -2.5474   -4.7775 H         1 <0>         0.1663
     46 H11         9.1568   -0.6966   -2.3722 H         1 <0>         0.1639
     47 H12         8.4006    2.0573   -0.1386 H         1 <0>         0.4334
@<TRIPOS>BOND
     1    1    5 2
     2    1    2 1
     3    1   36 1
     4    2    3 2
     5    2   37 1
     6    3    4 1
     7    3    6 1
     8    4    5 1
     9    5   38 1
    10    6   10 2
    11    6    7 1
    12    7    8 2
    13    7   39 1
    14    8    9 1
    15    8   18 1
    16    9   10 1
    17    9   11 1
    18   11   16 ar
    19   11   12 ar
    20   12   13 ar
    21   12   40 1
    22   13   14 ar
    23   13   41 1
    24   14   15 ar
    25   14   17 1
    26   15   16 ar
    27   15   42 1
    28   16   43 1
    29   18   19 1
    30   18   47 1
    31   19   20 2
    32   19   21 2
    33   19   22 1
    34   22   27 ar
    35   22   23 ar
    36   23   24 ar
    37   23   44 1
    38   24   25 ar
    39   24   32 1
    40   25   26 ar
    41   25   45 1
    42   26   27 ar
    43   26   28 1
    44   27   46 1
    45   28   29 1
    46   28   30 1
    47   28   31 1
    48   32   33 1
    49   32   34 1
    50   32   35 1
@<TRIPOS>MOLECULE
ZINC03995991
   80    82     0     0     0
SMALL
USER_CHARGES

@<TRIPOS>ATOM
      1 C1         -1.4579   -0.0905   -0.4585 C.3       1 <0>        -0.1062
      2 C2          0.0278    0.2268   -0.2766 C.3       1 <0>        -0.1195
      3 C3          0.2789    1.6996   -0.6061 C.3       1 <0>        -0.1362
      4 C4          0.4281   -0.0439    1.1509 C.2       1 <0>         0.5009
      5 O1          1.2954   -0.8651    1.3955 O.co2     1 <0>        -0.6638
      6 O2         -0.1153    0.5584    2.0611 O.co2     1 <0>        -0.6827
      7 S1          1.0097   -0.8175   -1.3883 S.3       1 <0>        -0.1197
      8 C5          2.6709   -0.3090   -1.0943 C.ar      1 <0>        -0.0457
      9 C6          2.9554    0.5797   -0.0644 C.ar      1 <0>        -0.0923
     10 C7          4.2584    0.9759    0.1631 C.ar      1 <0>        -0.1041
     11 C8          5.2798    0.4896   -0.6325 C.ar      1 <0>        -0.1080
     12 C9          5.0004   -0.3946   -1.6586 C.ar      1 <0>        -0.1099
     13 C10         3.7005   -0.8001   -1.8881 C.ar      1 <0>        -0.1130
     14 C11         6.7006    0.9245   -0.3811 C.3       1 <0>        -0.0873
     15 C12         7.3601   -0.0361    0.6106 C.3       1 <0>         0.1138
     16 N1          8.7413    0.3867    0.8550 N.am      1 <0>        -0.6265
     17 C13         9.0392    1.3236    1.9412 C.3       1 <0>         0.1331
     18 C14         9.3215    0.5420    3.2258 C.3       1 <0>        -0.1347
     19 C15         9.6327    1.5205    4.3601 C.3       1 <0>        -0.1163
     20 C16         9.9150    0.7389    5.6448 C.3       1 <0>        -0.1138
     21 C17        10.2262    1.7173    6.7791 C.3       1 <0>        -0.0869
     22 C18        11.5241    2.4646    6.4664 C.3       1 <0>        -0.1156
     23 C19        11.8353    3.4431    7.6007 C.3       1 <0>        -0.1205
     24 C20        11.9948    2.6702    8.9115 C.3       1 <0>        -0.1196
     25 C21        10.6969    1.9230    9.2242 C.3       1 <0>        -0.1201
     26 C22        10.3857    0.9445    8.0899 C.3       1 <0>        -0.1153
     27 C23         9.7379   -0.0863    0.0807 C.2       1 <0>         0.7084
     28 O3         10.8842    0.2646    0.2836 O.2       1 <0>        -0.5929
     29 N2          9.4638   -0.9482   -0.9185 N.am      1 <0>        -0.7440
     30 C24        10.5470   -1.4623   -1.7602 C.3       1 <0>         0.1646
     31 C25        10.8294   -0.4704   -2.8904 C.3       1 <0>        -0.1295
     32 C26        11.9607   -1.0073   -3.7694 C.3       1 <0>        -0.1162
     33 C27        11.5482   -2.3550   -4.3648 C.3       1 <0>        -0.1219
     34 C28        11.2659   -3.3469   -3.2347 C.3       1 <0>        -0.1145
     35 C29        10.1345   -2.8100   -2.3556 C.3       1 <0>        -0.1283
     36 H1         -1.7252    0.0124   -1.5102 H         1 <0>         0.0499
     37 H2         -1.6539   -1.1117   -0.1320 H         1 <0>         0.0554
     38 H3         -2.0528    0.6020    0.1370 H         1 <0>         0.0726
     39 H4         -0.2072    2.3271    0.1409 H         1 <0>         0.0689
     40 H5          1.3512    1.8951   -0.6027 H         1 <0>         0.0597
     41 H6         -0.1285    1.9260   -1.5915 H         1 <0>         0.0521
     42 H7          2.1583    0.9602    0.5570 H         1 <0>         0.1409
     43 H8          4.4802    1.6668    0.9630 H         1 <0>         0.1152
     44 H9          5.8004   -0.7721   -2.2782 H         1 <0>         0.1146
     45 H10         3.4837   -1.4946   -2.6862 H         1 <0>         0.1184
     46 H11         7.2550    0.9150   -1.3195 H         1 <0>         0.0686
     47 H12         6.7041    1.9328    0.0328 H         1 <0>         0.0729
     48 H13         6.8057   -0.0266    1.5490 H         1 <0>         0.0867
     49 H14         7.3566   -1.0445    0.1967 H         1 <0>         0.0741
     50 H15         9.9138    1.9185    1.6781 H         1 <0>         0.0819
     51 H16         8.1851    1.9826    2.0971 H         1 <0>         0.0757
     52 H17         8.4469   -0.0529    3.4888 H         1 <0>         0.0626
     53 H18        10.1757   -0.1170    3.0699 H         1 <0>         0.0647
     54 H19        10.5073    2.1154    4.0971 H         1 <0>         0.0648
     55 H20         8.7786    2.1794    4.5160 H         1 <0>         0.0624
     56 H21         9.0404    0.1440    5.9078 H         1 <0>         0.0620
     57 H22        10.7692    0.0799    5.4888 H         1 <0>         0.0601
     58 H23         9.4095    2.4327    6.8762 H         1 <0>         0.0694
     59 H24        12.3408    1.7493    6.3693 H         1 <0>         0.0598
     60 H25        11.4105    3.0152    5.5326 H         1 <0>         0.0645
     61 H26        12.7600    3.9754    7.3779 H         1 <0>         0.0587
     62 H27        11.0186    4.1584    7.6978 H         1 <0>         0.0604
     63 H28        12.8116    1.9549    8.8144 H         1 <0>         0.0595
     64 H29        12.2165    3.3673    9.7196 H         1 <0>         0.0578
     65 H30        10.8105    1.3724   10.1580 H         1 <0>         0.0588
     66 H31         9.8802    2.6383    9.3213 H         1 <0>         0.0608
     67 H32         9.4610    0.4121    8.3127 H         1 <0>         0.0611
     68 H33        11.2024    0.2292    7.9928 H         1 <0>         0.0599
     69 H34         8.5493   -1.2281   -1.0804 H         1 <0>         0.3968
     70 H35        11.4458   -1.5914   -1.1571 H         1 <0>         0.0858
     71 H36         9.9307   -0.3413   -3.4935 H         1 <0>         0.0624
     72 H37        11.1233    0.4897   -2.4662 H         1 <0>         0.0672
     73 H38        12.1619   -0.3007   -4.5745 H         1 <0>         0.0627
     74 H39        12.8595   -1.1364   -3.1663 H         1 <0>         0.0631
     75 H40        10.6495   -2.2259   -4.9679 H         1 <0>         0.0628
     76 H41        12.3542   -2.7375   -4.9911 H         1 <0>         0.0618
     77 H42        10.9720   -4.3070   -3.6589 H         1 <0>         0.0662
     78 H43        12.1646   -3.4760   -2.6315 H         1 <0>         0.0641
     79 H44         9.9334   -3.5166   -1.5505 H         1 <0>         0.0685
     80 H45         9.2358   -2.6809   -2.9588 H         1 <0>         0.0684
@<TRIPOS>BOND
     1    1    2 1
     2    1   36 1
     3    1   37 1
     4    1   38 1
     5    2    3 1
     6    2    4 1
     7    2    7 1
     8    3   39 1
     9    3   40 1
    10    3   41 1
    11    4    5 2
    12    4    6 1
    13    7    8 1
    14    8   13 ar
    15    8    9 ar
    16    9   10 ar
    17    9   42 1
    18   10   11 ar
    19   10   43 1
    20   11   12 ar
    21   11   14 1
    22   12   13 ar
    23   12   44 1
    24   13   45 1
    25   14   15 1
    26   14   46 1
    27   14   47 1
    28   15   16 1
    29   15   48 1
    30   15   49 1
    31   16   17 1
    32   16   27 am
    33   17   18 1
    34   17   50 1
    35   17   51 1
    36   18   19 1
    37   18   52 1
    38   18   53 1
    39   19   20 1
    40   19   54 1
    41   19   55 1
    42   20   21 1
    43   20   56 1
    44   20   57 1
    45   21   26 1
    46   21   22 1
    47   21   58 1
    48   22   23 1
    49   22   59 1
    50   22   60 1
    51   23   24 1
    52   23   61 1
    53   23   62 1
    54   24   25 1
    55   24   63 1
    56   24   64 1
    57   25   26 1
    58   25   65 1
    59   25   66 1
    60   26   67 1
    61   26   68 1
    62   27   28 2
    63   27   29 am
    64   29   30 1
    65   29   69 1
    66   30   35 1
    67   30   31 1
    68   30   70 1
    69   31   32 1
    70   31   71 1
    71   31   72 1
    72   32   33 1
    73   32   73 1
    74   32   74 1
    75   33   34 1
    76   33   75 1
    77   33   76 1
    78   34   35 1
    79   34   77 1
    80   34   78 1
    81   35   79 1
    82   35   80 1
@<TRIPOS>MOLECULE
ZINC01486389
   47    49     0     0     0
SMALL
USER_CHARGES
5-[[(5S)-2,4-dioxothiazolidin-5-yl]methyl]-2-methoxy-N-[[4-(trifluoromethyl)phenyl]methyl]benzamide
@<TRIPOS>ATOM
      1 C1          3.5380    3.0922   -0.0151 C.3       1 <0>         0.0188
      2 O1          2.3309    3.8568    0.0010 O.3       1 <0>        -0.2796
      3 C2          1.1639    3.1653    0.0084 C.ar      1 <0>         0.1950
      4 C3          1.1759    1.7783    0.0004 C.ar      1 <0>        -0.2160
      5 C4         -0.0126    1.0758    0.0080 C.ar      1 <0>        -0.0300
      6 C5         -1.2240    1.7481    0.0174 C.ar      1 <0>        -0.1455
      7 C6         -1.2546    3.1255    0.0308 C.ar      1 <0>        -0.0353
      8 C7         -0.0593    3.8489    0.0238 C.ar      1 <0>        -0.1743
      9 C8         -0.0848    5.3240    0.0319 C.2       1 <0>         0.5624
     10 O2          0.9575    5.9501    0.0253 O.2       1 <0>        -0.5125
     11 N1         -1.2634    5.9776    0.0467 N.am      1 <0>        -0.7288
     12 C9         -1.2887    7.4423    0.0548 C.3       1 <0>         0.1595
     13 C10        -2.7179    7.9200    0.0710 C.ar      1 <0>        -0.0784
     14 C11        -3.3830    8.1509   -1.1186 C.ar      1 <0>        -0.1005
     15 C12        -4.6956    8.5844   -1.1038 C.ar      1 <0>        -0.0705
     16 C13        -5.3396    8.7971    0.1007 C.ar      1 <0>        -0.1742
     17 C14        -4.6728    8.5712    1.2904 C.ar      1 <0>        -0.0707
     18 C15        -3.3620    8.1326    1.2755 C.ar      1 <0>        -0.1007
     19 C16        -6.7685    9.2756    0.1169 C.3       1 <0>         0.5069
     20 F1         -6.7918   10.6744    0.1247 F         1 <0>        -0.1748
     21 F2         -7.4311    8.8045   -1.0216 F         1 <0>        -0.1757
     22 F3         -7.4093    8.7922    1.2628 F         1 <0>        -0.1758
     23 C17        -2.5141    0.9691    0.0193 C.3       1 <0>        -0.0491
     24 C18        -2.9438    0.6977    1.4624 C.3       1 <0>        -0.0757
     25 H1         -3.0690    1.6276    2.0171 H         1 <0>         0.1616
     26 C19        -4.2049   -0.1529    1.5138 C.2       1 <0>         0.5302
     27 O3         -5.2601    0.2242    1.0510 O.2       1 <0>        -0.4564
     28 N2         -4.0704   -1.3314    2.0984 N.am      1 <0>        -0.6898
     29 C20        -2.9096   -1.7705    2.6193 C.2       1 <0>         0.5607
     30 O4         -2.6896   -2.8305    3.1726 O.2       1 <0>        -0.4155
     31 S1         -1.7677   -0.4320    2.3086 S.3       1 <0>        -0.1402
     32 H2          4.3948    3.7659   -0.0196 H         1 <0>         0.1052
     33 H3          3.5786    2.4586    0.8709 H         1 <0>         0.0589
     34 H4          3.5613    2.4688   -0.9090 H         1 <0>         0.0585
     35 H5          2.1162    1.2471   -0.0114 H         1 <0>         0.1397
     36 H6          0.0021   -0.0041    0.0020 H         1 <0>         0.1373
     37 H7         -2.2012    3.6453    0.0426 H         1 <0>         0.1337
     38 H8         -2.0949    5.4781    0.0519 H         1 <0>         0.3994
     39 H9         -0.7728    7.8097    0.9419 H         1 <0>         0.0833
     40 H10        -0.7897    7.8193   -0.8380 H         1 <0>         0.0833
     41 H11        -2.8784    7.9890   -2.0597 H         1 <0>         0.1387
     42 H12        -5.2164    8.7613   -2.0332 H         1 <0>         0.1396
     43 H13        -5.1759    8.7376    2.2314 H         1 <0>         0.1394
     44 H14        -2.8409    7.9565    2.2050 H         1 <0>         0.1386
     45 H15        -3.2876    1.5460   -0.4877 H         1 <0>         0.1076
     46 H16        -2.3676    0.0222   -0.5004 H         1 <0>         0.0927
     47 H17        -4.8480   -1.9086    2.1550 H         1 <0>         0.4191
@<TRIPOS>BOND
     1    1    2 1
     2    1   32 1
     3    1   33 1
     4    1   34 1
     5    2    3 1
     6    3    8 ar
     7    3    4 ar
     8    4    5 ar
     9    4   35 1
    10    5    6 ar
    11    5   36 1
    12    6    7 ar
    13    6   23 1
    14    7    8 ar
    15    7   37 1
    16    8    9 1
    17    9   10 2
    18    9   11 am
    19   11   12 1
    20   11   38 1
    21   12   13 1
    22   12   39 1
    23   12   40 1
    24   13   18 ar
    25   13   14 ar
    26   14   15 ar
    27   14   41 1
    28   15   16 ar
    29   15   42 1
    30   16   17 ar
    31   16   19 1
    32   17   18 ar
    33   17   43 1
    34   18   44 1
    35   19   20 1
    36   19   21 1
    37   19   22 1
    38   23   24 1
    39   23   45 1
    40   23   46 1
    41   24   25 1
    42   24   31 1
    43   24   26 1
    44   26   27 2
    45   26   28 am
    46   28   29 am
    47   28   47 1
    48   29   30 2
    49   29   31 1
@<TRIPOS>MOLECULE
ZINC03929313
   47    49     0     0     0
SMALL
USER_CHARGES
5-[(2,4-dioxothiazolidin-5-yl)methyl]-2-methoxy-N-[[4-(trifluoromethyl)phenyl]methyl]benzamide
@<TRIPOS>ATOM
      1 C1         -0.9150   -6.4616    1.8342 C.3       1 <0>         0.0188
      2 O1          0.3520   -6.2399    1.2115 O.3       1 <0>        -0.2796
      3 C2          0.8265   -4.9691    1.2161 C.ar      1 <0>         0.1950
      4 C3          0.0903   -3.9526    1.8066 C.ar      1 <0>        -0.2161
      5 C4          0.5767   -2.6606    1.8147 C.ar      1 <0>        -0.0298
      6 C5          1.7958   -2.3670    1.2256 C.ar      1 <0>        -0.1456
      7 C6          2.5404   -3.3644    0.6344 C.ar      1 <0>        -0.0352
      8 C7          2.0625   -4.6771    0.6237 C.ar      1 <0>        -0.1743
      9 C8          2.8544   -5.7498   -0.0079 C.2       1 <0>         0.5624
     10 O2          2.4352   -6.8911   -0.0152 O.2       1 <0>        -0.5125
     11 N1          4.0425   -5.4646   -0.5768 N.am      1 <0>        -0.7288
     12 C9          4.8288   -6.5298   -1.2040 C.3       1 <0>         0.1595
     13 C10         6.1043   -5.9514   -1.7604 C.ar      1 <0>        -0.0784
     14 C11         6.1414   -5.4829   -3.0604 C.ar      1 <0>        -0.1007
     15 C12         7.3101   -4.9479   -3.5692 C.ar      1 <0>        -0.0707
     16 C13         8.4446   -4.8912   -2.7815 C.ar      1 <0>        -0.1742
     17 C14         8.4089   -5.3645   -1.4832 C.ar      1 <0>        -0.0705
     18 C15         7.2388   -5.8947   -0.9727 C.ar      1 <0>        -0.1005
     19 C16         9.7203   -4.3137   -3.3382 C.3       1 <0>         0.5069
     20 F1         10.4706   -5.3314   -3.9370 F         1 <0>        -0.1748
     21 F2          9.4131   -3.3378   -4.2924 F         1 <0>        -0.1758
     22 F3         10.4617   -3.7357   -2.3021 F         1 <0>        -0.1757
     23 C17         2.3127   -0.9515    1.2368 C.3       1 <0>        -0.0490
     24 C18         1.8264   -0.2210   -0.0166 C.3       1 <0>        -0.0756
     25 H1          2.1558   -0.7310   -0.9218 H         1 <0>         0.1615
     26 C19         2.2623    1.2372   -0.0129 C.2       1 <0>         0.5302
     27 O3          3.4296    1.5646   -0.0219 O.2       1 <0>        -0.4565
     28 N2          1.2801    2.1226    0.0012 N.am      1 <0>        -0.6898
     29 C20        -0.0222    1.7825    0.0118 C.2       1 <0>         0.5608
     30 O4         -0.9893    2.5190    0.0207 O.2       1 <0>        -0.4154
     31 S1          0.0021   -0.0041    0.0020 S.3       1 <0>        -0.1404
     32 H2         -1.6758   -5.8631    1.3331 H         1 <0>         0.0589
     33 H3         -1.1763   -7.5172    1.7604 H         1 <0>         0.1052
     34 H4         -0.8592   -6.1735    2.8839 H         1 <0>         0.0585
     35 H5         -0.8627   -4.1730    2.2646 H         1 <0>         0.1397
     36 H6          0.0018   -1.8735    2.2797 H         1 <0>         0.1372
     37 H7          3.4922   -3.1316    0.1803 H         1 <0>         0.1337
     38 H8          4.3769   -4.5541   -0.5710 H         1 <0>         0.3994
     39 H9          5.0685   -7.2902   -0.4608 H         1 <0>         0.0833
     40 H10         4.2515   -6.9802   -2.0115 H         1 <0>         0.0833
     41 H11         5.2562   -5.5313   -3.6773 H         1 <0>         0.1386
     42 H12         7.3380   -4.5784   -4.5837 H         1 <0>         0.1395
     43 H13         9.2954   -5.3205   -0.8679 H         1 <0>         0.1396
     44 H14         7.2111   -6.2648    0.0415 H         1 <0>         0.1387
     45 H15         3.4025   -0.9628    1.2508 H         1 <0>         0.1075
     46 H16         1.9432   -0.4367    2.1237 H         1 <0>         0.0927
     47 H17         1.5098    3.0650    0.0038 H         1 <0>         0.4191
@<TRIPOS>BOND
     1    1    2 1
     2    1   32 1
     3    1   33 1
     4    1   34 1
     5    2    3 1
     6    3    8 ar
     7    3    4 ar
     8    4    5 ar
     9    4   35 1
    10    5    6 ar
    11    5   36 1
    12    6    7 ar
    13    6   23 1
    14    7    8 ar
    15    7   37 1
    16    8    9 1
    17    9   10 2
    18    9   11 am
    19   11   12 1
    20   11   38 1
    21   12   13 1
    22   12   39 1
    23   12   40 1
    24   13   18 ar
    25   13   14 ar
    26   14   15 ar
    27   14   41 1
    28   15   16 ar
    29   15   42 1
    30   16   17 ar
    31   16   19 1
    32   17   18 ar
    33   17   43 1
    34   18   44 1
    35   19   20 1
    36   19   21 1
    37   19   22 1
    38   23   24 1
    39   23   45 1
    40   23   46 1
    41   24   25 1
    42   24   31 1
    43   24   26 1
    44   26   27 2
    45   26   28 am
    46   28   29 am
    47   28   47 1
    48   29   30 2
    49   29   31 1
@<TRIPOS>MOLECULE
ZINC01550501
   60    63     0     0     0
SMALL
USER_CHARGES
2-methyl-2-[4-[2-[5-methyl-2-(4-phenylphenyl)-oxazol-4-yl]ethoxy]phenoxy]-propanoic acid
@<TRIPOS>ATOM
      1 C1          4.1614   -4.6859   -3.4096 C.3       1 <0>        -0.0735
      2 C2          4.6388   -4.9925   -2.0135 C.2       1 <0>        -0.0292
      3 C3          3.9660   -4.7608   -0.8714 C.2       1 <0>        -0.0063
      4 N1          4.7304   -5.1797    0.1482 N.2       1 <0>        -0.4569
      5 C4          5.8532   -5.6560   -0.3371 C.2       1 <0>         0.2250
      6 O1          5.8202   -5.5471   -1.6768 O.3       1 <0>        -0.1932
      7 C5          6.9663   -6.2170    0.4556 C.ar      1 <0>        -0.0126
      8 C6          6.8766   -6.2670    1.8487 C.ar      1 <0>        -0.0660
      9 C7          7.9128   -6.7941    2.5863 C.ar      1 <0>        -0.1115
     10 C8          9.0560   -7.2692    1.9435 C.ar      1 <0>        -0.0284
     11 C9          9.1488   -7.2149    0.5527 C.ar      1 <0>        -0.1117
     12 C10         8.1118   -6.6927   -0.1871 C.ar      1 <0>        -0.0857
     13 C11        10.1735   -7.8319    2.7392 C.ar      1 <0>        -0.0494
     14 C12        11.3152   -8.3124    2.0998 C.ar      1 <0>        -0.1081
     15 C13        12.3541   -8.8306    2.8458 C.ar      1 <0>        -0.1187
     16 C14        12.2598   -8.8834    4.2249 C.ar      1 <0>        -0.1172
     17 C15        11.1271   -8.4128    4.8646 C.ar      1 <0>        -0.1181
     18 C16        10.0841   -7.8876    4.1292 C.ar      1 <0>        -0.1074
     19 C17         2.5948   -4.1460   -0.7584 C.3       1 <0>        -0.0329
     20 C18         2.7260   -2.6272   -0.6285 C.3       1 <0>         0.0681
     21 O2          1.4258   -2.0442   -0.5213 O.3       1 <0>        -0.3192
     22 C19         1.3640   -0.6913   -0.3981 C.ar      1 <0>         0.0755
     23 C20         0.1337   -0.0603   -0.2895 C.ar      1 <0>        -0.1223
     24 C21         0.0710    1.3139   -0.1643 C.ar      1 <0>        -0.1314
     25 C22         1.2383    2.0627   -0.1472 C.ar      1 <0>         0.1317
     26 C23         2.4687    1.4316   -0.2552 C.ar      1 <0>        -0.1274
     27 C24         2.5314    0.0574   -0.3804 C.ar      1 <0>        -0.1744
     28 O3          1.1766    3.4156   -0.0244 O.3       1 <0>        -0.3036
     29 C25         2.4170    4.1119    0.1116 C.3       1 <0>         0.0581
     30 C26         2.1461    5.6088    0.2758 C.3       1 <0>        -0.1155
     31 C27         3.1623    3.5906    1.3418 C.3       1 <0>        -0.1761
     32 C28         3.2576    3.8855   -1.1184 C.2       1 <0>         0.4480
     33 O4          2.8377    3.1983   -2.0191 O.co2     1 <0>        -0.6144
     34 H1          4.4702   -3.6778   -3.6861 H         1 <0>         0.0908
     35 H2          4.5945   -5.4027   -4.1073 H         1 <0>         0.0805
     36 H3          3.0742   -4.7555   -3.4453 H         1 <0>         0.0968
     37 H4          5.9931   -5.8957    2.3468 H         1 <0>         0.1422
     38 H5          7.8422   -6.8359    3.6631 H         1 <0>         0.1352
     39 H6         10.0343   -7.5831    0.0560 H         1 <0>         0.1334
     40 H7          8.1840   -6.6505   -1.2638 H         1 <0>         0.1335
     41 H8         11.3880   -8.2759    1.0229 H         1 <0>         0.1266
     42 H9         13.2410   -9.1992    2.3518 H         1 <0>         0.1247
     43 H10        13.0735   -9.2939    4.8045 H         1 <0>         0.1228
     44 H11        11.0588   -8.4568    5.9415 H         1 <0>         0.1251
     45 H12         9.2001   -7.5208    4.6296 H         1 <0>         0.1275
     46 H13         2.0898   -4.5436    0.1219 H         1 <0>         0.0929
     47 H14         2.0145   -4.3857   -1.6494 H         1 <0>         0.0917
     48 H15         3.2310   -2.2295   -1.5088 H         1 <0>         0.0601
     49 H16         3.3062   -2.3875    0.2625 H         1 <0>         0.0622
     50 H17        -0.7753   -0.6434   -0.3026 H         1 <0>         0.1282
     51 H18        -0.8872    1.8057   -0.0843 H         1 <0>         0.1294
     52 H19         3.3777    2.0147   -0.2418 H         1 <0>         0.1426
     53 H20         3.4894   -0.4340   -0.4642 H         1 <0>         0.1193
     54 H21         1.6118    5.7810    1.2101 H         1 <0>         0.0532
     55 H22         3.0924    6.1495    0.2934 H         1 <0>         0.0819
     56 H23         1.5412    5.9623   -0.5592 H         1 <0>         0.0576
     57 H24         3.2393    2.5047    1.2869 H         1 <0>         0.0683
     58 H25         4.1617    4.0246    1.3721 H         1 <0>         0.0784
     59 H26         2.6170    3.8710    2.2430 H         1 <0>         0.0542
     60 O5          4.4730    4.4472   -1.2135 O.co2     1 <0>        -0.7549
@<TRIPOS>BOND
     1    1    2 1
     2    1   34 1
     3    1   35 1
     4    1   36 1
     5    2    6 1
     6    2    3 2
     7    3    4 1
     8    3   19 1
     9    4    5 2
    10    5    6 1
    11    5    7 1
    12    7   12 ar
    13    7    8 ar
    14    8    9 ar
    15    8   37 1
    16    9   10 ar
    17    9   38 1
    18   10   11 ar
    19   10   13 1
    20   11   12 ar
    21   11   39 1
    22   12   40 1
    23   13   18 ar
    24   13   14 ar
    25   14   15 ar
    26   14   41 1
    27   15   16 ar
    28   15   42 1
    29   16   17 ar
    30   16   43 1
    31   17   18 ar
    32   17   44 1
    33   18   45 1
    34   19   20 1
    35   19   46 1
    36   19   47 1
    37   20   21 1
    38   20   48 1
    39   20   49 1
    40   21   22 1
    41   22   27 ar
    42   22   23 ar
    43   23   24 ar
    44   23   50 1
    45   24   25 ar
    46   24   51 1
    47   25   26 ar
    48   25   28 1
    49   26   27 ar
    50   26   52 1
    51   27   53 1
    52   28   29 1
    53   29   30 1
    54   29   31 1
    55   29   32 1
    56   30   54 1
    57   30   55 1
    58   30   56 1
    59   31   57 1
    60   31   58 1
    61   31   59 1
    62   32   33 2
    63   32   60 1
@<TRIPOS>MOLECULE
ZINC29132642
   41    43     0     0     0
SMALL
USER_CHARGES
N-benzyl-2-(2-naphthyloxy)ethanamine
@<TRIPOS>ATOM
      1 C1          5.9276   -2.8187   -5.0412 C.ar      1 <0>        -0.0835
      2 C2          6.5785   -1.6025   -4.9511 C.ar      1 <0>        -0.1150
      3 C3          6.5836   -0.9081   -3.7558 C.ar      1 <0>        -0.0945
      4 C4          5.9382   -1.4302   -2.6505 C.ar      1 <0>        -0.1646
      5 C5          5.2922   -2.6491   -2.7390 C.ar      1 <0>        -0.0931
      6 C6          5.2826   -3.3409   -3.9357 C.ar      1 <0>        -0.1144
      7 C7          5.9442   -0.6734   -1.3473 C.3       1 <0>         0.0516
      8 N1          4.7817    0.2232   -1.2964 N.4       1 <0>        -0.5395
      9 C8          4.7545    0.9790   -0.0370 C.3       1 <0>         0.0029
     10 C9          3.5326    1.8996   -0.0210 C.3       1 <0>         0.0247
     11 O1          2.3415    1.1102   -0.0139 O.3       1 <0>        -0.3301
     12 C10         1.1584    1.7786    0.0005 C.ar      1 <0>         0.1133
     13 C11         1.1560    3.1771    0.0071 C.ar      1 <0>        -0.1969
     14 C12        -0.0116    3.8739    0.0216 C.ar      1 <0>        -0.0545
     15 C13        -1.2360    3.1829    0.0300 C.ar      1 <0>        -0.0770
     16 C14        -2.4609    3.8714    0.0455 C.ar      1 <0>        -0.0970
     17 C15        -3.6276    3.1707    0.0537 C.ar      1 <0>        -0.1164
     18 C16        -3.6278    1.7770    0.0466 C.ar      1 <0>        -0.0960
     19 C17        -2.4612    1.0764    0.0317 C.ar      1 <0>        -0.1171
     20 C18        -1.2361    1.7655    0.0175 C.ar      1 <0>        -0.0184
     21 C19        -0.0126    1.0758    0.0080 C.ar      1 <0>        -0.1355
     22 H1          5.9233   -3.3610   -5.9751 H         1 <0>         0.1356
     23 H2          7.0828   -1.1946   -5.8147 H         1 <0>         0.1356
     24 H3          7.0922    0.0420   -3.6855 H         1 <0>         0.1306
     25 H4          4.7917   -3.0590   -1.8742 H         1 <0>         0.1312
     26 H5          4.7744   -4.2913   -4.0060 H         1 <0>         0.1358
     27 H6          5.8954   -1.3850   -0.5099 H         1 <0>         0.1351
     28 H7          6.8679   -0.0809   -1.2716 H         1 <0>         0.1349
     29 H8          4.8306    0.9348   -2.1338 H         1 <0>         0.4476
     30 H9          4.6973    0.2790    0.8096 H         1 <0>         0.1401
     31 H10         5.6699    1.5831    0.0480 H         1 <0>         0.1483
     32 H11         3.5602    2.5299    0.8801 H         1 <0>         0.1092
     33 H12         3.5434    2.5389   -0.9161 H         1 <0>         0.0869
     34 H13         2.0946    3.7111    0.0003 H         1 <0>         0.1288
     35 H14         0.0015    4.9538    0.0261 H         1 <0>         0.1364
     36 H15        -2.4764    4.9513    0.0505 H         1 <0>         0.1316
     37 H16        -4.5675    3.7026    0.0656 H         1 <0>         0.1296
     38 H17        -4.5678    1.2451    0.0527 H         1 <0>         0.1299
     39 H18        -2.4767   -0.0035    0.0263 H         1 <0>         0.1310
     40 H19         0.0021   -0.0041    0.0020 H         1 <0>         0.1357
     41 H20         3.8580   -0.3693   -1.3722 H         1 <0>         0.4570
@<TRIPOS>BOND
     1    1    6 ar
     2    1    2 ar
     3    1   22 1
     4    2    3 ar
     5    2   23 1
     6    3    4 ar
     7    3   24 1
     8    4    5 ar
     9    4    7 1
    10    5    6 ar
    11    5   25 1
    12    6   26 1
    13    7    8 1
    14    7   27 1
    15    7   28 1
    16    8    9 1
    17    8   29 1
    18    8   41 1
    19    9   10 1
    20    9   30 1
    21    9   31 1
    22   10   11 1
    23   10   32 1
    24   10   33 1
    25   11   12 1
    26   12   21 ar
    27   12   13 ar
    28   13   14 ar
    29   13   34 1
    30   14   15 ar
    31   14   35 1
    32   15   20 ar
    33   15   16 ar
    34   16   17 ar
    35   16   36 1
    36   17   18 ar
    37   17   37 1
    38   18   19 ar
    39   18   38 1
    40   19   20 ar
    41   19   39 1
    42   20   21 ar
    43   21   40 1
@<TRIPOS>MOLECULE
ZINC14115100
   67    68     0     0     0
SMALL
USER_CHARGES
2-[4-[2-[(2,4-difluorophenyl)carbamoyl-heptyl-amino]ethyl]phenyl]sulfanyl-2-methyl-propanoic acid
@<TRIPOS>ATOM
      1 C1         -3.2763    9.6479   -4.4636 C.3       1 <0>        -0.1540
      2 C2         -3.2631    8.1180   -4.4701 C.3       1 <0>        -0.1263
      3 C3         -3.3770    7.6010   -3.0346 C.3       1 <0>        -0.1208
      4 C4         -3.3638    6.0710   -3.0410 C.3       1 <0>        -0.1200
      5 C5         -3.4776    5.5540   -1.6055 C.3       1 <0>        -0.1184
      6 C6         -3.4644    4.0241   -1.6120 C.3       1 <0>        -0.1408
      7 C7         -3.5783    3.5070   -0.1765 C.3       1 <0>         0.1039
      8 N1         -3.5657    2.0421   -0.1826 N.am      1 <0>        -0.6181
      9 C8         -4.8238    1.2992   -0.2897 C.3       1 <0>         0.1373
     10 C9         -5.3800    1.0335    1.1106 C.3       1 <0>        -0.0930
     11 C10        -6.6741    0.2693    1.0004 C.ar      1 <0>        -0.0744
     12 C11        -7.8732    0.9525    0.9109 C.ar      1 <0>        -0.1263
     13 C12        -9.0606    0.2557    0.8041 C.ar      1 <0>        -0.0745
     14 C13        -9.0505   -1.1340    0.7981 C.ar      1 <0>        -0.1107
     15 C14        -7.8441   -1.8173    0.8939 C.ar      1 <0>        -0.0724
     16 C15        -6.6603   -1.1137    0.9947 C.ar      1 <0>        -0.1215
     17 S1        -10.5636   -2.0276    0.6686 S.3       1 <0>        -0.1222
     18 C16       -11.1603   -2.1302    2.3786 C.3       1 <0>        -0.0783
     19 C17       -10.1880   -2.9709    3.2085 C.3       1 <0>        -0.1213
     20 C18       -11.2525   -0.7229    2.9719 C.3       1 <0>        -0.1228
     21 C19       -12.5230   -2.7734    2.3974 C.2       1 <0>         0.4904
     22 O1        -13.0387   -3.1265    1.3633 O.co2     1 <0>        -0.6162
     23 C20        -2.3966    1.3779   -0.0897 C.2       1 <0>         0.7080
     24 O2         -2.3861    0.1620   -0.0948 O.2       1 <0>        -0.5628
     25 N2         -1.2392    2.0614    0.0088 N.am      1 <0>        -0.6805
     26 C21        -0.0164    1.3761   -0.0139 C.ar      1 <0>         0.1349
     27 C22         0.0735    0.1352   -0.6286 C.ar      1 <0>        -0.0774
     28 C23         1.2807   -0.5362   -0.6551 C.ar      1 <0>        -0.1359
     29 C24         2.4016    0.0276   -0.0694 C.ar      1 <0>         0.1054
     30 C25         2.3157    1.2653    0.5452 C.ar      1 <0>        -0.1674
     31 C26         1.1094    1.9412    0.5742 C.ar      1 <0>         0.0905
     32 F1          1.0253    3.1494    1.1731 F         1 <0>        -0.1311
     33 F2          3.5807   -0.6311   -0.0974 F         1 <0>        -0.1323
     34 H1         -4.2085   10.0014   -4.0230 H         1 <0>         0.0537
     35 H2         -2.4346   10.0161   -3.8770 H         1 <0>         0.0529
     36 H3         -3.1952   10.0163   -5.4863 H         1 <0>         0.0529
     37 H4         -2.3309    7.7645   -4.9107 H         1 <0>         0.0599
     38 H5         -4.1048    7.7499   -5.0567 H         1 <0>         0.0609
     39 H6         -4.3092    7.9544   -2.5939 H         1 <0>         0.0619
     40 H7         -2.5353    7.9691   -2.4480 H         1 <0>         0.0606
     41 H8         -2.4316    5.7176   -3.4816 H         1 <0>         0.0608
     42 H9         -4.2055    5.7029   -3.6276 H         1 <0>         0.0628
     43 H10        -4.4098    5.9075   -1.1649 H         1 <0>         0.0666
     44 H11        -2.6359    5.9221   -1.0189 H         1 <0>         0.0632
     45 H12        -2.5322    3.6706   -2.0526 H         1 <0>         0.0646
     46 H13        -4.3062    3.6559   -2.1986 H         1 <0>         0.0727
     47 H14        -4.5105    3.8605    0.2642 H         1 <0>         0.0902
     48 H15        -2.7366    3.8752    0.4101 H         1 <0>         0.0718
     49 H16        -5.5438    1.8845   -0.8617 H         1 <0>         0.0837
     50 H17        -4.6435    0.3504   -0.7952 H         1 <0>         0.0912
     51 H18        -4.6599    0.4482    1.6825 H         1 <0>         0.0767
     52 H19        -5.5602    1.9823    1.6160 H         1 <0>         0.0716
     53 H20        -7.8806    2.0325    0.9200 H         1 <0>         0.1202
     54 H21        -9.9962    0.7899    0.7297 H         1 <0>         0.1282
     55 H22        -7.8326   -2.8972    0.8899 H         1 <0>         0.1287
     56 H23        -5.7223   -1.6440    1.0689 H         1 <0>         0.1231
     57 H24        -9.2266   -2.4607    3.2687 H         1 <0>         0.0432
     58 H25       -10.5906   -3.1069    4.2122 H         1 <0>         0.0696
     59 H26       -10.0541   -3.9438    2.7358 H         1 <0>         0.0576
     60 H27       -12.0092   -0.1510    2.4349 H         1 <0>         0.0571
     61 H28       -11.5267   -0.7897    4.0247 H         1 <0>         0.0676
     62 H29       -10.2871   -0.2254    2.8788 H         1 <0>         0.0458
     63 H30        -1.2523    3.0274    0.0955 H         1 <0>         0.4108
     64 H31        -0.7998   -0.3054   -1.0864 H         1 <0>         0.1692
     65 H32         1.3502   -1.5020   -1.1336 H         1 <0>         0.1472
     66 H33         3.1911    1.7034    1.0014 H         1 <0>         0.1517
     67 O3        -13.1638   -2.9542    3.5629 O.co2     1 <0>        -0.7496
@<TRIPOS>BOND
     1    1    2 1
     2    1   34 1
     3    1   35 1
     4    1   36 1
     5    2    3 1
     6    2   37 1
     7    2   38 1
     8    3    4 1
     9    3   39 1
    10    3   40 1
    11    4    5 1
    12    4   41 1
    13    4   42 1
    14    5    6 1
    15    5   43 1
    16    5   44 1
    17    6    7 1
    18    6   45 1
    19    6   46 1
    20    7    8 1
    21    7   47 1
    22    7   48 1
    23    8    9 1
    24    8   23 am
    25    9   10 1
    26    9   49 1
    27    9   50 1
    28   10   11 1
    29   10   51 1
    30   10   52 1
    31   11   16 ar
    32   11   12 ar
    33   12   13 ar
    34   12   53 1
    35   13   14 ar
    36   13   54 1
    37   14   15 ar
    38   14   17 1
    39   15   16 ar
    40   15   55 1
    41   16   56 1
    42   17   18 1
    43   18   19 1
    44   18   20 1
    45   18   21 1
    46   19   57 1
    47   19   58 1
    48   19   59 1
    49   20   60 1
    50   20   61 1
    51   20   62 1
    52   21   22 2
    53   21   67 1
    54   23   24 2
    55   23   25 am
    56   25   26 1
    57   25   63 1
    58   26   31 ar
    59   26   27 ar
    60   27   28 ar
    61   27   64 1
    62   28   29 ar
    63   28   65 1
    64   29   30 ar
    65   29   33 1
    66   30   31 ar
    67   30   66 1
    68   31   32 1
@<TRIPOS>MOLECULE
ZINC06069082
   48    51     0     0     0
SMALL
USER_CHARGES

@<TRIPOS>ATOM
      1 C1         -0.0184    1.5028    0.0103 C.3       1 <0>        -0.0707
      2 C2          0.0021   -0.0041    0.0020 C.2       1 <0>        -0.0344
      3 C3         -1.0705   -0.8164    0.0025 C.2       1 <0>        -0.0048
      4 N1         -0.6270   -2.0826   -0.0064 N.2       1 <0>        -0.4575
      5 C4          0.6851   -2.0676   -0.0123 C.2       1 <0>         0.2288
      6 O1          1.0981   -0.7883   -0.0131 O.3       1 <0>        -0.1937
      7 C5          1.5619   -3.2577   -0.0227 C.ar      1 <0>        -0.0165
      8 C6          1.0059   -4.5378   -0.0330 C.ar      1 <0>        -0.0699
      9 C7          1.8298   -5.6443   -0.0432 C.ar      1 <0>        -0.1201
     10 C8          3.2044   -5.4871   -0.0433 C.ar      1 <0>        -0.1016
     11 C9          3.7620   -4.2209   -0.0327 C.ar      1 <0>        -0.1219
     12 C10         2.9493   -3.1060   -0.0282 C.ar      1 <0>        -0.0910
     13 C11        -2.5133   -0.3814    0.0119 C.3       1 <0>        -0.0335
     14 C12        -3.0085   -0.2260   -1.4274 C.3       1 <0>         0.0678
     15 O2         -4.3766    0.1865   -1.4185 O.3       1 <0>        -0.3186
     16 C13        -4.9731    0.3716   -2.6255 C.ar      1 <0>         0.1209
     17 C14        -4.2580    0.1549   -3.7944 C.ar      1 <0>        -0.2071
     18 C15        -4.8667    0.3432   -5.0201 C.ar      1 <0>        -0.0117
     19 C16        -6.1874    0.7477   -5.0825 C.ar      1 <0>        -0.1089
     20 C17        -6.9021    0.9648   -3.9190 C.ar      1 <0>        -0.0788
     21 C18        -6.2998    0.7719   -2.6908 C.ar      1 <0>        -0.1622
     22 C19        -6.8489    0.9529   -6.4210 C.3       1 <0>        -0.0373
     23 C20        -7.4951   -0.3570   -6.8767 C.3       1 <0>        -0.1987
     24 H1         -8.1722   -0.7351   -6.1107 H         1 <0>         0.1153
     25 C21        -6.4348   -1.3869   -7.2041 C.2       1 <0>         0.3706
     26 O3         -5.5192   -1.8967   -6.3505 O.3       1 <0>        -0.6648
     27 N2         -6.5704   -1.6859   -8.4481 N.2       1 <0>        -0.4420
     28 O4         -7.6210   -0.9796   -9.0623 O.3       1 <0>        -0.1918
     29 C22        -8.2310   -0.1596   -8.1870 C.2       1 <0>         0.4519
     30 O5         -9.1678    0.5799   -8.3992 O.2       1 <0>        -0.4914
     31 H2          1.0042    1.8801    0.0026 H         1 <0>         0.0798
     32 H3         -0.5455    1.8639   -0.8728 H         1 <0>         0.0923
     33 H4         -0.5286    1.8543    0.9071 H         1 <0>         0.0922
     34 H5         -0.0670   -4.6619   -0.0326 H         1 <0>         0.1397
     35 H6          1.4008   -6.6354   -0.0508 H         1 <0>         0.1329
     36 H7          3.8450   -6.3565   -0.0513 H         1 <0>         0.1281
     37 H8          4.8357   -4.1050   -0.0321 H         1 <0>         0.1301
     38 H9          3.3858   -2.1181   -0.0249 H         1 <0>         0.1297
     39 H10        -3.1156   -1.1316    0.5243 H         1 <0>         0.0940
     40 H11        -2.6018    0.5726    0.5316 H         1 <0>         0.0915
     41 H12        -2.4061    0.5242   -1.9398 H         1 <0>         0.0596
     42 H13        -2.9200   -1.1800   -1.9471 H         1 <0>         0.0669
     43 H14        -3.2262   -0.1604   -3.7462 H         1 <0>         0.1191
     44 H15        -4.3105    0.1747   -5.9304 H         1 <0>         0.1248
     45 H16        -7.9335    1.2810   -3.9704 H         1 <0>         0.1235
     46 H17        -6.8598    0.9373   -1.7823 H         1 <0>         0.1235
     47 H18        -7.6139    1.7243   -6.3338 H         1 <0>         0.0757
     48 H19        -6.1019    1.2629   -7.1517 H         1 <0>         0.0699
@<TRIPOS>BOND
     1    1    2 1
     2    1   31 1
     3    1   32 1
     4    1   33 1
     5    2    6 1
     6    2    3 2
     7    3    4 1
     8    3   13 1
     9    4    5 2
    10    5    6 1
    11    5    7 1
    12    7   12 ar
    13    7    8 ar
    14    8    9 ar
    15    8   34 1
    16    9   10 ar
    17    9   35 1
    18   10   11 ar
    19   10   36 1
    20   11   12 ar
    21   11   37 1
    22   12   38 1
    23   13   14 1
    24   13   39 1
    25   13   40 1
    26   14   15 1
    27   14   41 1
    28   14   42 1
    29   15   16 1
    30   16   21 ar
    31   16   17 ar
    32   17   18 ar
    33   17   43 1
    34   18   19 ar
    35   18   44 1
    36   19   20 ar
    37   19   22 1
    38   20   21 ar
    39   20   45 1
    40   21   46 1
    41   22   23 1
    42   22   47 1
    43   22   48 1
    44   23   24 1
    45   23   29 1
    46   23   25 1
    47   25   26 1
    48   25   27 2
    49   27   28 1
    50   28   29 1
    51   29   30 2
@<TRIPOS>MOLECULE
ZINC06069082
   49    52     0     0     0
SMALL
USER_CHARGES

@<TRIPOS>ATOM
      1 C1         -0.0184    1.5028    0.0103 C.3       1 <0>        -0.0723
      2 C2          0.0021   -0.0041    0.0020 C.2       1 <0>        -0.0318
      3 C3         -1.0705   -0.8164    0.0025 C.2       1 <0>        -0.0104
      4 N1         -0.6270   -2.0826   -0.0064 N.2       1 <0>        -0.4611
      5 C4          0.6851   -2.0676   -0.0123 C.2       1 <0>         0.2347
      6 O1          1.0981   -0.7883   -0.0131 O.3       1 <0>        -0.1920
      7 C5          1.5619   -3.2577   -0.0227 C.ar      1 <0>        -0.0213
      8 C6          1.0059   -4.5378   -0.0330 C.ar      1 <0>        -0.0703
      9 C7          1.8298   -5.6443   -0.0432 C.ar      1 <0>        -0.1206
     10 C8          3.2044   -5.4871   -0.0433 C.ar      1 <0>        -0.0987
     11 C9          3.7620   -4.2209   -0.0327 C.ar      1 <0>        -0.1205
     12 C10         2.9493   -3.1060   -0.0282 C.ar      1 <0>        -0.0896
     13 C11        -2.5133   -0.3814    0.0119 C.3       1 <0>        -0.0334
     14 C12        -3.0085   -0.2260   -1.4274 C.3       1 <0>         0.0669
     15 O2         -4.3766    0.1865   -1.4185 O.3       1 <0>        -0.3126
     16 C13        -4.9731    0.3716   -2.6255 C.ar      1 <0>         0.1384
     17 C14        -4.2580    0.1549   -3.7944 C.ar      1 <0>        -0.2051
     18 C15        -4.8667    0.3432   -5.0201 C.ar      1 <0>        -0.0463
     19 C16        -6.1874    0.7477   -5.0825 C.ar      1 <0>        -0.1395
     20 C17        -6.9021    0.9648   -3.9190 C.ar      1 <0>        -0.0673
     21 C18        -6.2998    0.7719   -2.6908 C.ar      1 <0>        -0.1526
     22 C19        -6.8489    0.9529   -6.4210 C.3       1 <0>        -0.0461
     23 C20        -7.4951   -0.3570   -6.8767 C.3       1 <0>        -0.1881
     24 H1         -8.1719   -0.7343   -6.1101 H         1 <0>         0.1588
     25 C21        -8.2332   -0.1573   -8.1838 C.2       1 <0>         0.5267
     26 O3         -9.1705    0.5872   -8.3837 O.2       1 <0>        -0.4700
     27 N2         -7.6436   -0.9684   -9.0779 N.am      1 <0>        -0.5597
     28 O4         -6.5843   -1.6902   -8.4965 O.3       1 <0>        -0.1027
     29 C22        -6.4336   -1.3872   -7.2000 C.2       1 <0>         0.4798
     30 O5         -5.6104   -1.8448   -6.4363 O.2       1 <0>        -0.3991
     31 H2          1.0042    1.8801    0.0026 H         1 <0>         0.0818
     32 H3         -0.5455    1.8639   -0.8728 H         1 <0>         0.0906
     33 H4         -0.5286    1.8543    0.9071 H         1 <0>         0.0935
     34 H5         -0.0670   -4.6619   -0.0326 H         1 <0>         0.1384
     35 H6          1.4008   -6.6354   -0.0508 H         1 <0>         0.1334
     36 H7          3.8450   -6.3565   -0.0513 H         1 <0>         0.1297
     37 H8          4.8357   -4.1050   -0.0321 H         1 <0>         0.1318
     38 H9          3.3858   -2.1181   -0.0249 H         1 <0>         0.1303
     39 H10        -3.1156   -1.1316    0.5243 H         1 <0>         0.0956
     40 H11        -2.6018    0.5726    0.5316 H         1 <0>         0.0937
     41 H12        -2.4061    0.5242   -1.9398 H         1 <0>         0.0631
     42 H13        -2.9200   -1.1800   -1.9471 H         1 <0>         0.0682
     43 H14        -3.2262   -0.1604   -3.7462 H         1 <0>         0.1267
     44 H15        -4.3105    0.1747   -5.9304 H         1 <0>         0.1204
     45 H16        -7.9335    1.2810   -3.9704 H         1 <0>         0.1321
     46 H17        -6.8598    0.9373   -1.7823 H         1 <0>         0.1330
     47 H18        -7.6139    1.7243   -6.3338 H         1 <0>         0.1038
     48 H19        -6.1019    1.2629   -7.1517 H         1 <0>         0.0826
     49 H20        -7.9135   -1.0464  -10.0064 H         1 <0>         0.4569
@<TRIPOS>BOND
     1    1    2 1
     2    1   31 1
     3    1   32 1
     4    1   33 1
     5    2    6 1
     6    2    3 2
     7    3    4 1
     8    3   13 1
     9    4    5 2
    10    5    6 1
    11    5    7 1
    12    7   12 ar
    13    7    8 ar
    14    8    9 ar
    15    8   34 1
    16    9   10 ar
    17    9   35 1
    18   10   11 ar
    19   10   36 1
    20   11   12 ar
    21   11   37 1
    22   12   38 1
    23   13   14 1
    24   13   39 1
    25   13   40 1
    26   14   15 1
    27   14   41 1
    28   14   42 1
    29   15   16 1
    30   16   21 ar
    31   16   17 ar
    32   17   18 ar
    33   17   43 1
    34   18   19 ar
    35   18   44 1
    36   19   20 ar
    37   19   22 1
    38   20   21 ar
    39   20   45 1
    40   21   46 1
    41   22   23 1
    42   22   47 1
    43   22   48 1
    44   23   24 1
    45   23   29 1
    46   23   25 1
    47   25   26 2
    48   25   27 am
    49   27   28 1
    50   27   49 1
    51   28   29 1
    52   29   30 2
@<TRIPOS>MOLECULE
ZINC06069082
   49    52     0     0     0
SMALL
USER_CHARGES

@<TRIPOS>ATOM
      1 C1         -0.0184    1.5028    0.0103 C.3       1 <0>        -0.0724
      2 C2          0.0021   -0.0041    0.0020 C.2       1 <0>        -0.0316
      3 C3         -1.0705   -0.8164    0.0025 C.2       1 <0>        -0.0104
      4 N1         -0.6270   -2.0826   -0.0064 N.2       1 <0>        -0.4613
      5 C4          0.6851   -2.0676   -0.0123 C.2       1 <0>         0.2346
      6 O1          1.0981   -0.7883   -0.0131 O.3       1 <0>        -0.1920
      7 C5          1.5619   -3.2577   -0.0227 C.ar      1 <0>        -0.0214
      8 C6          1.0059   -4.5378   -0.0330 C.ar      1 <0>        -0.0704
      9 C7          1.8298   -5.6443   -0.0432 C.ar      1 <0>        -0.1206
     10 C8          3.2044   -5.4871   -0.0433 C.ar      1 <0>        -0.0986
     11 C9          3.7620   -4.2209   -0.0327 C.ar      1 <0>        -0.1204
     12 C10         2.9493   -3.1060   -0.0282 C.ar      1 <0>        -0.0895
     13 C11        -2.5133   -0.3814    0.0119 C.3       1 <0>        -0.0338
     14 C12        -3.0085   -0.2260   -1.4274 C.3       1 <0>         0.0673
     15 O2         -4.3766    0.1865   -1.4185 O.3       1 <0>        -0.3124
     16 C13        -4.9731    0.3716   -2.6255 C.ar      1 <0>         0.1386
     17 C14        -4.2580    0.1549   -3.7944 C.ar      1 <0>        -0.2101
     18 C15        -4.8667    0.3432   -5.0201 C.ar      1 <0>        -0.0664
     19 C16        -6.1874    0.7477   -5.0825 C.ar      1 <0>        -0.1389
     20 C17        -6.9021    0.9648   -3.9190 C.ar      1 <0>        -0.0479
     21 C18        -6.2998    0.7719   -2.6908 C.ar      1 <0>        -0.1475
     22 C19        -6.8489    0.9529   -6.4210 C.3       1 <0>        -0.0462
     23 C20        -7.4951   -0.3570   -6.8767 C.3       1 <0>        -0.1883
     24 H1         -6.7627   -1.1643   -6.8724 H         1 <0>         0.1578
     25 C21        -8.1004   -0.1978   -8.2556 C.2       1 <0>         0.5267
     26 O3         -7.5132    0.0815   -9.2803 O.2       1 <0>        -0.4706
     27 N2         -9.4171   -0.4272   -8.1186 N.am      1 <0>        -0.5596
     28 O4         -9.7506   -0.7241   -6.7836 O.3       1 <0>        -0.1023
     29 C22        -8.6717   -0.7043   -5.9892 C.2       1 <0>         0.4799
     30 O5         -8.6417   -0.9210   -4.7966 O.2       1 <0>        -0.3978
     31 H2          1.0042    1.8801    0.0026 H         1 <0>         0.0819
     32 H3         -0.5455    1.8639   -0.8728 H         1 <0>         0.0907
     33 H4         -0.5286    1.8543    0.9071 H         1 <0>         0.0936
     34 H5         -0.0670   -4.6619   -0.0326 H         1 <0>         0.1383
     35 H6          1.4008   -6.6354   -0.0508 H         1 <0>         0.1334
     36 H7          3.8450   -6.3565   -0.0513 H         1 <0>         0.1298
     37 H8          4.8357   -4.1050   -0.0321 H         1 <0>         0.1319
     38 H9          3.3858   -2.1181   -0.0249 H         1 <0>         0.1304
     39 H10        -3.1156   -1.1316    0.5243 H         1 <0>         0.0957
     40 H11        -2.6018    0.5726    0.5316 H         1 <0>         0.0938
     41 H12        -2.4061    0.5242   -1.9398 H         1 <0>         0.0632
     42 H13        -2.9200   -1.1800   -1.9471 H         1 <0>         0.0675
     43 H14        -3.2262   -0.1604   -3.7462 H         1 <0>         0.1274
     44 H15        -4.3105    0.1747   -5.9304 H         1 <0>         0.1268
     45 H16        -7.9335    1.2810   -3.9704 H         1 <0>         0.1256
     46 H17        -6.8598    0.9373   -1.7823 H         1 <0>         0.1324
     47 H18        -7.6139    1.7243   -6.3338 H         1 <0>         0.0838
     48 H19        -6.1019    1.2629   -7.1517 H         1 <0>         0.1027
     49 H20       -10.0566   -0.3930   -8.8471 H         1 <0>         0.4569
@<TRIPOS>BOND
     1    1    2 1
     2    1   31 1
     3    1   32 1
     4    1   33 1
     5    2    6 1
     6    2    3 2
     7    3    4 1
     8    3   13 1
     9    4    5 2
    10    5    6 1
    11    5    7 1
    12    7   12 ar
    13    7    8 ar
    14    8    9 ar
    15    8   34 1
    16    9   10 ar
    17    9   35 1
    18   10   11 ar
    19   10   36 1
    20   11   12 ar
    21   11   37 1
    22   12   38 1
    23   13   14 1
    24   13   39 1
    25   13   40 1
    26   14   15 1
    27   14   41 1
    28   14   42 1
    29   15   16 1
    30   16   21 ar
    31   16   17 ar
    32   17   18 ar
    33   17   43 1
    34   18   19 ar
    35   18   44 1
    36   19   20 ar
    37   19   22 1
    38   20   21 ar
    39   20   45 1
    40   21   46 1
    41   22   23 1
    42   22   47 1
    43   22   48 1
    44   23   24 1
    45   23   29 1
    46   23   25 1
    47   25   26 2
    48   25   27 am
    49   27   28 1
    50   27   49 1
    51   28   29 1
    52   29   30 2
@<TRIPOS>MOLECULE
ZINC00001963
   34    35     0     0     0
SMALL
USER_CHARGES

@<TRIPOS>ATOM
      1 C1          1.1628    1.2415   -0.1816 C.3       1 <0>        -0.1125
      2 C2          0.5396   -0.1274   -0.0881 C.ar      1 <0>        -0.0708
      3 C3         -0.0758   -0.6832   -1.1950 C.ar      1 <0>        -0.1399
      4 C4         -0.6489   -1.9389   -1.1136 C.ar      1 <0>        -0.0956
      5 C5         -0.6081   -2.6426    0.0743 C.ar      1 <0>        -0.1245
      6 C6          0.0094   -2.0875    1.1876 C.ar      1 <0>         0.1624
      7 C7          0.5885   -0.8277    1.1009 C.ar      1 <0>        -0.1269
      8 C8          1.2642   -0.2236    2.3049 C.3       1 <0>        -0.1134
      9 N1          0.0525   -2.7970    2.3913 N.pl3     1 <0>        -0.6432
     10 C9         -0.0333   -4.1809    2.3838 C.ar      1 <0>         0.4504
     11 C10        -0.1233   -4.8911    3.5821 C.ar      1 <0>        -0.2937
     12 C11        -0.2076   -6.2706    3.5268 C.ar      1 <0>         0.2686
     13 N2         -0.2005   -6.8736    2.3458 N.ar      1 <0>        -0.5558
     14 C12        -0.1140   -6.1729    1.2242 C.ar      1 <0>         0.3382
     15 N3         -0.0367   -4.8500    1.2351 N.ar      1 <0>        -0.5436
     16 S1         -0.1079   -7.0210   -0.3202 S.3       1 <0>         0.0845
     17 C13        -0.2344   -8.7712    0.1397 C.3       1 <0>        -0.1742
     18 C14        -0.2397   -9.6189   -1.1062 C.2       1 <0>         0.5136
     19 O1         -0.1649   -9.0913   -2.2028 O.co2     1 <0>        -0.6747
     20 O2         -0.3186  -10.8323   -1.0176 O.co2     1 <0>        -0.6767
     21 Cl1        -0.3208   -7.2023    4.9872 Cl        1 <0>        -0.0203
     22 H1          2.2036    1.1465   -0.4911 H         1 <0>         0.0688
     23 H2          0.6192    1.8390   -0.9134 H         1 <0>         0.0653
     24 H3          1.1164    1.7291    0.7921 H         1 <0>         0.0654
     25 H4         -0.1091   -0.1351   -2.1250 H         1 <0>         0.1195
     26 H5         -1.1293   -2.3698   -1.9796 H         1 <0>         0.1264
     27 H6         -1.0562   -3.6232    0.1373 H         1 <0>         0.1517
     28 H7          0.5364    0.3468    2.8820 H         1 <0>         0.0672
     29 H8          1.6782   -1.0180    2.9259 H         1 <0>         0.0600
     30 H9          2.0668    0.4373    1.9776 H         1 <0>         0.0719
     31 H10         0.1425   -2.3212    3.2317 H         1 <0>         0.4195
     32 H11        -0.1267   -4.3752    4.5310 H         1 <0>         0.1489
     33 H12         0.6171   -9.0457    0.7624 H         1 <0>         0.0917
     34 H13        -1.1582   -8.9351    0.6946 H         1 <0>         0.0918
@<TRIPOS>BOND
     1    1    2 1
     2    1   22 1
     3    1   23 1
     4    1   24 1
     5    2    7 ar
     6    2    3 ar
     7    3    4 ar
     8    3   25 1
     9    4    5 ar
    10    4   26 1
    11    5    6 ar
    12    5   27 1
    13    6    7 ar
    14    6    9 1
    15    7    8 1
    16    8   28 1
    17    8   29 1
    18    8   30 1
    19    9   10 1
    20    9   31 1
    21   10   15 ar
    22   10   11 ar
    23   11   12 ar
    24   11   32 1
    25   12   13 ar
    26   12   21 1
    27   13   14 ar
    28   14   15 ar
    29   14   16 1
    30   16   17 1
    31   17   18 1
    32   17   33 1
    33   17   34 1
    34   18   19 2
    35   18   20 1
@<TRIPOS>MOLECULE
ZINC08730640
   33    34     0     0     0
SMALL
USER_CHARGES
2-(2-naphthyloxy)pentanoic acid
@<TRIPOS>ATOM
      1 C1         -2.6346    2.1286   -2.6206 C.3       1 <0>        -0.1489
      2 C2         -2.0615    1.4101   -1.3974 C.3       1 <0>        -0.1244
      3 C3         -0.5931    1.8008   -1.2180 C.3       1 <0>        -0.0969
      4 C4         -0.0201    1.0823    0.0052 C.3       1 <0>         0.0390
      5 H1         -0.1744    0.0083   -0.0988 H         1 <0>         0.0722
      6 C5          1.4555    1.3698    0.1111 C.2       1 <0>         0.4459
      7 O1          1.8830    1.9959    1.0519 O.co2     1 <0>        -0.6160
      8 O2         -0.6816    1.5467    1.1837 O.3       1 <0>        -0.2933
      9 C6         -0.6906    0.7116    2.2557 C.ar      1 <0>         0.1719
     10 C7          0.0277   -0.4871    2.2027 C.ar      1 <0>        -0.1729
     11 C8          0.0379   -1.3432    3.2593 C.ar      1 <0>        -0.0739
     12 C9         -0.6823   -1.0226    4.4234 C.ar      1 <0>        -0.0914
     13 C10        -0.6931   -1.8839    5.5337 C.ar      1 <0>        -0.0891
     14 C11        -1.4009   -1.5419    6.6448 C.ar      1 <0>        -0.1442
     15 C12        -2.1176   -0.3479    6.7000 C.ar      1 <0>        -0.1144
     16 C13        -2.1304    0.5108    5.6443 C.ar      1 <0>        -0.1162
     17 C14        -1.4112    0.1918    4.4794 C.ar      1 <0>        -0.0083
     18 C15        -1.3965    1.0567    3.3728 C.ar      1 <0>        -0.1802
     19 H2         -2.0710    1.8409   -3.5082 H         1 <0>         0.0532
     20 H3         -3.6807    1.8502   -2.7485 H         1 <0>         0.0492
     21 H4         -2.5604    3.2065   -2.4767 H         1 <0>         0.0528
     22 H5         -2.1357    0.3322   -1.5414 H         1 <0>         0.0572
     23 H6         -2.6251    1.6978   -0.5099 H         1 <0>         0.0641
     24 H7         -0.5190    2.8787   -1.0740 H         1 <0>         0.0677
     25 H8         -0.0295    1.5131   -2.1055 H         1 <0>         0.0885
     26 H9          0.5818   -0.7367    1.3100 H         1 <0>         0.1328
     27 H10         0.5973   -2.2654    3.2045 H         1 <0>         0.1275
     28 H11        -0.1421   -2.8123    5.5057 H         1 <0>         0.1215
     29 H12        -1.4069   -2.2057    7.4967 H         1 <0>         0.1160
     30 H13        -2.6707   -0.1003    7.5939 H         1 <0>         0.1168
     31 H14        -2.6906    1.4324    5.7011 H         1 <0>         0.1231
     32 H15        -1.9438    1.9872    3.4035 H         1 <0>         0.1301
     33 O3          2.2948    0.9304   -0.8398 O.co2     1 <0>        -0.7594
@<TRIPOS>BOND
     1    1    2 1
     2    1   19 1
     3    1   20 1
     4    1   21 1
     5    2    3 1
     6    2   22 1
     7    2   23 1
     8    3    4 1
     9    3   24 1
    10    3   25 1
    11    4    5 1
    12    4    6 1
    13    4    8 1
    14    6    7 2
    15    6   33 1
    16    8    9 1
    17    9   18 ar
    18    9   10 ar
    19   10   11 ar
    20   10   26 1
    21   11   12 ar
    22   11   27 1
    23   12   17 ar
    24   12   13 ar
    25   13   14 ar
    26   13   28 1
    27   14   15 ar
    28   14   29 1
    29   15   16 ar
    30   15   30 1
    31   16   17 ar
    32   16   31 1
    33   17   18 ar
    34   18   32 1
@<TRIPOS>MOLECULE
ZINC01492396
   42    45     0     0     0
SMALL
USER_CHARGES

@<TRIPOS>ATOM
      1 C1         -0.0167    1.3788    0.0096 C.ar      1 <0>        -0.1423
      2 C2          1.1696    2.0899    0.0021 C.ar      1 <0>        -0.1045
      3 C3          2.3774    1.4209   -0.0130 C.ar      1 <0>        -0.1110
      4 C4          2.4001    0.0314   -0.0207 C.ar      1 <0>        -0.0786
      5 C5          1.2062   -0.6798   -0.0132 C.ar      1 <0>        -0.1199
      6 C6          0.0021   -0.0041    0.0020 C.ar      1 <0>        -0.1023
      7 S1          3.9389   -0.8266   -0.0406 S.3       1 <0>         0.0790
      8 C7          3.4786   -2.5274   -0.0452 C.2       1 <0>        -0.2036
      9 C8          3.2557   -3.3779    1.1274 C.ar      1 <0>        -0.0669
     10 C9          3.3265   -3.1518    2.5053 C.ar      1 <0>        -0.0555
     11 C10         3.0565   -4.1702    3.3755 C.ar      1 <0>        -0.0587
     12 C11         2.7118   -5.4301    2.9010 C.ar      1 <0>        -0.0982
     13 C12         2.6366   -5.6747    1.5484 C.ar      1 <0>        -0.1111
     14 C13         2.9072   -4.6515    0.6420 C.ar      1 <0>         0.1032
     15 N1          2.9120   -4.6006   -0.7331 N.pl3     1 <0>        -0.4464
     16 C14         3.2508   -3.3206   -1.1576 C.2       1 <0>         0.1697
     17 C15         3.3488   -2.8999   -2.4996 C.2       1 <0>         0.4656
     18 O1          3.1037   -3.7606   -3.4874 O.co2     1 <0>        -0.6882
     19 O2          3.6866   -1.6415   -2.7806 O.co2     1 <0>        -0.6323
     20 C16         2.6018   -5.7262   -1.6180 C.3       1 <0>         0.1421
     21 C17         1.1239   -5.7412   -1.9125 C.ar      1 <0>        -0.1029
     22 C18         0.2626   -6.4432   -1.0900 C.ar      1 <0>        -0.0940
     23 C19        -1.0929   -6.4574   -1.3596 C.ar      1 <0>        -0.1249
     24 C20        -1.5878   -5.7688   -2.4528 C.ar      1 <0>        -0.0278
     25 C21        -0.7253   -5.0664   -3.2755 C.ar      1 <0>        -0.1196
     26 C22         0.6293   -5.0484   -3.0017 C.ar      1 <0>        -0.0746
     27 Cl1        -3.2901   -5.7866   -2.7923 Cl        1 <0>        -0.0818
     28 Cl2         3.1453   -3.8882    5.0862 Cl        1 <0>        -0.0829
     29 H1         -0.9599    1.9047    0.0260 H         1 <0>         0.1159
     30 H2          1.1512    3.1697    0.0077 H         1 <0>         0.1201
     31 H3          3.3033    1.9767   -0.0192 H         1 <0>         0.1227
     32 H4          1.2201   -1.7597   -0.0195 H         1 <0>         0.1155
     33 H5         -0.9262   -0.5561    0.0083 H         1 <0>         0.1153
     34 H6          3.5941   -2.1752    2.8808 H         1 <0>         0.1350
     35 H7          2.5010   -6.2255    3.6006 H         1 <0>         0.1326
     36 H8          2.3685   -6.6577    1.1904 H         1 <0>         0.1266
     37 H9          3.1569   -5.6194   -2.5500 H         1 <0>         0.1359
     38 H10         2.8848   -6.6596   -1.1315 H         1 <0>         0.0861
     39 H11         0.6491   -6.9810   -0.2369 H         1 <0>         0.1257
     40 H12        -1.7656   -7.0061   -0.7171 H         1 <0>         0.1293
     41 H13        -1.1110   -4.5290   -4.1292 H         1 <0>         0.1316
     42 H14         1.3021   -4.4962   -3.6411 H         1 <0>         0.1761
@<TRIPOS>BOND
     1    1    6 ar
     2    1    2 ar
     3    1   29 1
     4    2    3 ar
     5    2   30 1
     6    3    4 ar
     7    3   31 1
     8    4    5 ar
     9    4    7 1
    10    5    6 ar
    11    5   32 1
    12    6   33 1
    13    7    8 1
    14    8   16 2
    15    8    9 1
    16    9   14 ar
    17    9   10 ar
    18   10   11 ar
    19   10   34 1
    20   11   12 ar
    21   11   28 1
    22   12   13 ar
    23   12   35 1
    24   13   14 ar
    25   13   36 1
    26   14   15 1
    27   15   16 1
    28   15   20 1
    29   16   17 1
    30   17   18 2
    31   17   19 1
    32   20   21 1
    33   20   37 1
    34   20   38 1
    35   21   26 ar
    36   21   22 ar
    37   22   23 ar
    38   22   39 1
    39   23   24 ar
    40   23   40 1
    41   24   25 ar
    42   24   27 1
    43   25   26 ar
    44   25   41 1
    45   26   42 1
@<TRIPOS>MOLECULE
ZINC01047087
   40    43     0     0     0
SMALL
USER_CHARGES

@<TRIPOS>ATOM
      1 C1         -0.0167    1.3780    0.0096 C.ar      1 <0>        -0.1162
      2 C2          1.1705    2.0859    0.0021 C.ar      1 <0>        -0.1143
      3 C3          2.3786    1.4101   -0.0131 C.ar      1 <0>         0.0717
      4 C4          2.3962    0.0254   -0.0207 C.ar      1 <0>        -0.0554
      5 C5          1.2081   -0.6801   -0.0132 C.ar      1 <0>        -0.5929
      6 C6          0.0021   -0.0041    0.0020 C.ar      1 <0>        -0.0325
      7 S1          1.2300   -2.4419   -0.0235 S.o2      1 <0>         2.6348
      8 O1         -0.0155   -2.8604   -0.5646 O.2       1 <0>        -1.0134
      9 O2          2.4749   -2.8293   -0.5887 O.2       1 <0>        -1.0138
     10 N1          1.2515   -2.9406    1.5555 N.2       1 <0>        -1.0903
     11 C7          1.2714   -4.2995    1.8560 C.2       1 <0>         0.4500
     12 C8          1.2814   -5.3190    0.9575 C.2       1 <0>        -0.4080
     13 C9          1.3011   -6.5293    1.6797 C.2       1 <0>         0.1832
     14 N2          1.3028   -6.2400    2.9659 N.2       1 <0>        -0.3195
     15 N3          1.2903   -4.8462    3.1033 N.pl3     1 <0>        -0.3439
     16 C10         1.2936   -4.1381    4.3126 C.ar      1 <0>         0.1904
     17 C11         1.9645   -2.9261    4.4067 C.ar      1 <0>        -0.0795
     18 C12         1.9666   -2.2298    5.5994 C.ar      1 <0>        -0.1377
     19 C13         1.3000   -2.7397    6.7010 C.ar      1 <0>         0.0703
     20 C14         0.6303   -3.9483    6.6092 C.ar      1 <0>        -0.1414
     21 C15         0.6210   -4.6449    5.4168 C.ar      1 <0>        -0.1019
     22 F1          1.3036   -2.0573    7.8670 F         1 <0>        -0.1474
     23 C16         1.3166   -7.8878    1.0960 C.2       1 <0>        -0.0473
     24 C17         1.3304   -9.0999    1.7322 C.2       1 <0>        -0.1523
     25 C18         1.3435  -10.2480    0.9699 C.2       1 <0>        -0.1509
     26 C19         1.3425  -10.1432   -0.3835 C.2       1 <0>        -0.1963
     27 S2          1.3145   -8.3742   -0.6218 S.3       1 <0>         0.0779
     28 F2          3.5396    2.1009   -0.0209 F         1 <0>        -0.1400
     29 H1         -0.9592    1.9050    0.0260 H         1 <0>         0.1383
     30 H2          1.1556    3.1658    0.0077 H         1 <0>         0.1376
     31 H3          3.3381   -0.5029   -0.0329 H         1 <0>         0.1499
     32 H4         -0.9260   -0.5563    0.0079 H         1 <0>         0.1448
     33 H5          1.2750   -5.2196   -0.1179 H         1 <0>         0.1332
     34 H6          2.4848   -2.5283    3.5479 H         1 <0>         0.1559
     35 H7          2.4886   -1.2872    5.6731 H         1 <0>         0.1356
     36 H8          0.1114   -4.3444    7.4696 H         1 <0>         0.1341
     37 H9          0.0949   -5.5852    5.3443 H         1 <0>         0.1369
     38 H10         1.3312   -9.1554    2.8107 H         1 <0>         0.1369
     39 H11         1.3549  -11.2186    1.4432 H         1 <0>         0.1304
     40 H12         1.3515  -10.9281   -1.1252 H         1 <0>         0.1831
@<TRIPOS>BOND
     1    1    6 ar
     2    1    2 ar
     3    1   29 1
     4    2    3 ar
     5    2   30 1
     6    3    4 ar
     7    3   28 1
     8    4    5 ar
     9    4   31 1
    10    5    6 ar
    11    5    7 1
    12    6   32 1
    13    7    8 2
    14    7    9 2
    15    7   10 1
    16   10   11 1
    17   11   15 1
    18   11   12 2
    19   12   13 1
    20   12   33 1
    21   13   14 2
    22   13   23 1
    23   14   15 1
    24   15   16 1
    25   16   21 ar
    26   16   17 ar
    27   17   18 ar
    28   17   34 1
    29   18   19 ar
    30   18   35 1
    31   19   20 ar
    32   19   22 1
    33   20   21 ar
    34   20   36 1
    35   21   37 1
    36   23   27 1
    37   23   24 2
    38   24   25 1
    39   24   38 1
    40   25   26 2
    41   25   39 1
    42   26   27 1
    43   26   40 1
@<TRIPOS>MOLECULE
ZINC01047087
   41    44     0     0     0
SMALL
USER_CHARGES

@<TRIPOS>ATOM
      1 C1         -0.1858    1.3498    0.0690 C.ar      1 <0>        -0.1039
      2 C2          0.9646    2.1129    0.1389 C.ar      1 <0>        -0.0903
      3 C3          2.2035    1.4957    0.1628 C.ar      1 <0>         0.0838
      4 C4          2.2887    0.1142    0.1166 C.ar      1 <0>        -0.0524
      5 C5          1.1374   -0.6465    0.0468 C.ar      1 <0>        -0.6541
      6 C6         -0.0995   -0.0289    0.0230 C.ar      1 <0>        -0.0247
      7 S1          1.2454   -2.4042   -0.0125 S.o2      1 <0>         2.6931
      8 O1         -0.0091   -2.8724   -0.4881 O.2       1 <0>        -0.9210
      9 O2          2.4704   -2.7141   -0.6626 O.2       1 <0>        -0.9280
     10 N1          1.3893   -2.9388    1.5482 N.pl3     1 <0>        -1.0341
     11 C7          0.3359   -2.7690    2.4420 C.2       1 <0>         0.3456
     12 C8         -0.9058   -2.3072    2.1390 C.2       1 <0>        -0.2911
     13 C9         -1.6615   -2.2913    3.3287 C.2       1 <0>         0.1973
     14 N2         -0.8950   -2.7292    4.3078 N.2       1 <0>        -0.2559
     15 N3          0.3625   -3.0415    3.7762 N.pl3     1 <0>        -0.3262
     16 C10         1.4575   -3.5434    4.4922 C.ar      1 <0>         0.1417
     17 C11         2.3269   -4.4445    3.8917 C.ar      1 <0>        -0.1174
     18 C12         3.4054   -4.9380    4.5990 C.ar      1 <0>        -0.1241
     19 C13         3.6202   -4.5350    5.9064 C.ar      1 <0>         0.1034
     20 C14         2.7544   -3.6365    6.5071 C.ar      1 <0>        -0.1273
     21 C15         1.6779   -3.1362    5.8013 C.ar      1 <0>        -0.0760
     22 F1          4.6756   -5.0193    6.5969 F         1 <0>        -0.1299
     23 C16        -3.0695   -1.8580    3.4565 C.2       1 <0>        -0.0995
     24 C17        -3.8595   -1.8109    4.5735 C.2       1 <0>        -0.1151
     25 C18        -5.1578   -1.3659    4.4483 C.2       1 <0>        -0.1614
     26 C19        -5.6127   -0.9891    3.2262 C.2       1 <0>        -0.1626
     27 S2         -4.1792   -1.2529    2.1956 S.3       1 <0>         0.0910
     28 F2          3.3286    2.2405    0.2306 F         1 <0>        -0.1300
     29 H1         -1.1526    1.8309    0.0548 H         1 <0>         0.1502
     30 H2          0.8969    3.1901    0.1744 H         1 <0>         0.1486
     31 H3          3.2548   -0.3683    0.1349 H         1 <0>         0.1527
     32 H4         -0.9989   -0.6243   -0.0316 H         1 <0>         0.1518
     33 H5         -1.2516   -2.0059    1.1612 H         1 <0>         0.1730
     34 H6          2.1595   -4.7593    2.8722 H         1 <0>         0.1393
     35 H7          4.0816   -5.6391    4.1324 H         1 <0>         0.1521
     36 H8          2.9234   -3.3236    7.5269 H         1 <0>         0.1502
     37 H9          1.0055   -2.4321    6.2687 H         1 <0>         0.1489
     38 H10        -3.4729   -2.1169    5.5344 H         1 <0>         0.1403
     39 H11        -5.8051   -1.3179    5.3115 H         1 <0>         0.1398
     40 H12        -6.5893   -0.6201    2.9494 H         1 <0>         0.1916
     41 H13         2.2078   -3.3703    1.8395 H         1 <0>         0.4309
@<TRIPOS>BOND
     1    1    6 ar
     2    1    2 ar
     3    1   29 1
     4    2    3 ar
     5    2   30 1
     6    3    4 ar
     7    3   28 1
     8    4    5 ar
     9    4   31 1
    10    5    6 ar
    11    5    7 1
    12    6   32 1
    13    7    8 2
    14    7    9 2
    15    7   10 1
    16   10   11 1
    17   10   41 1
    18   11   15 1
    19   11   12 2
    20   12   13 1
    21   12   33 1
    22   13   14 2
    23   13   23 1
    24   14   15 1
    25   15   16 1
    26   16   21 ar
    27   16   17 ar
    28   17   18 ar
    29   17   34 1
    30   18   19 ar
    31   18   35 1
    32   19   20 ar
    33   19   22 1
    34   20   21 ar
    35   20   36 1
    36   21   37 1
    37   23   27 1
    38   23   24 2
    39   24   25 1
    40   24   38 1
    41   25   26 2
    42   25   39 1
    43   26   27 1
    44   26   40 1
@<TRIPOS>MOLECULE
ZINC34717659
   46    50     0     0     0
SMALL
USER_CHARGES

@<TRIPOS>ATOM
      1 C1         -0.0163    1.3532    0.0095 C.2       1 <0>        -0.1512
      2 C2          1.1779    2.0409    0.0018 C.2       1 <0>        -0.1511
      3 C3          2.3471    1.3290   -0.0132 C.2       1 <0>        -0.0488
      4 S1          1.7524   -0.3545   -0.0166 S.3       1 <0>         0.0780
      5 C4          0.0021   -0.0041    0.0020 C.2       1 <0>        -0.1953
      6 C5          3.7400    1.8251   -0.0243 C.2       1 <0>         0.1842
      7 C6          4.9019    1.0274   -0.0453 C.2       1 <0>        -0.4073
      8 C7          5.9766    1.8592   -0.0499 C.2       1 <0>         0.4497
      9 N1          5.5103    3.1388   -0.0324 N.pl3     1 <0>        -0.3425
     10 N2          4.1106    3.0902   -0.0219 N.2       1 <0>        -0.3174
     11 C8          6.2938    4.3005   -0.0299 C.ar      1 <0>         0.1892
     12 C9          7.5091    4.3180    0.6417 C.ar      1 <0>        -0.0795
     13 C10         8.2800    5.4638    0.6426 C.ar      1 <0>        -0.1380
     14 C11         7.8416    6.5950   -0.0252 C.ar      1 <0>         0.0712
     15 C12         6.6297    6.5798   -0.6952 C.ar      1 <0>        -0.1412
     16 C13         5.8587    5.4341   -0.7037 C.ar      1 <0>        -0.1011
     17 F1          8.5970    7.7151   -0.0228 F         1 <0>        -0.1471
     18 N3          7.3137    1.4729   -0.0684 N.2       1 <0>        -1.0879
     19 S2          7.7109   -0.1347   -0.0879 S.o2      1 <0>         2.6598
     20 O1          7.2875   -0.6727    1.1573 O.2       1 <0>        -1.0013
     21 O2          7.2598   -0.6494   -1.3332 O.2       1 <0>        -1.0045
     22 C14         9.4698   -0.2365   -0.1084 C.2       1 <0>        -0.6544
     23 C15        10.3339   -0.3012    0.9380 C.2       1 <0>        -0.0487
     24 C16        11.6856   -0.3761    0.6880 C.2       1 <0>        -0.1127
     25 C17        12.1156   -0.3829   -0.6124 C.2       1 <0>        -0.1366
     26 S3         10.5748   -0.2889   -1.5096 S.3       1 <0>         0.2308
     27 C18        13.4954   -0.4550   -1.1366 C.2       1 <0>         0.1986
     28 C19        13.8718   -0.4520   -2.5034 C.2       1 <0>        -0.1864
     29 C20        15.2116   -0.5297   -2.5664 C.2       1 <0>        -0.0292
     30 O3         15.6907   -0.5809   -1.3135 O.3       1 <0>        -0.0393
     31 N4         14.5937   -0.5275   -0.4196 N.2       1 <0>        -0.2665
     32 C21        16.0356   -0.5555   -3.8279 C.3       1 <0>         0.5576
     33 F2         16.3681    0.7530   -4.1946 F         1 <0>        -0.1553
     34 F3         17.2059   -1.2891   -3.6056 F         1 <0>        -0.1583
     35 F4         15.2978   -1.1544   -4.8547 F         1 <0>        -0.1515
     36 H1         -0.9549    1.8873    0.0258 H         1 <0>         0.1307
     37 H2          1.1912    3.1208    0.0071 H         1 <0>         0.1371
     38 H3         -0.8285   -0.6944    0.0065 H         1 <0>         0.1834
     39 H4          4.9327   -0.0521   -0.0555 H         1 <0>         0.1336
     40 H5          7.8511    3.4362    1.1632 H         1 <0>         0.1560
     41 H6          9.2253    5.4778    1.1648 H         1 <0>         0.1356
     42 H7          6.2892    7.4632   -1.2148 H         1 <0>         0.1345
     43 H8          4.9159    5.4211   -1.2303 H         1 <0>         0.1372
     44 H9          9.9651   -0.2936    1.9530 H         1 <0>         0.1564
     45 H10        12.3936   -0.4282    1.5018 H         1 <0>         0.1478
     46 H11        13.1991   -0.3975   -3.3466 H         1 <0>         0.1819
@<TRIPOS>BOND
     1    1    5 2
     2    1    2 1
     3    1   36 1
     4    2    3 2
     5    2   37 1
     6    3    4 1
     7    3    6 1
     8    4    5 1
     9    5   38 1
    10    6   10 2
    11    6    7 1
    12    7    8 2
    13    7   39 1
    14    8    9 1
    15    8   18 1
    16    9   10 1
    17    9   11 1
    18   11   16 ar
    19   11   12 ar
    20   12   13 ar
    21   12   40 1
    22   13   14 ar
    23   13   41 1
    24   14   15 ar
    25   14   17 1
    26   15   16 ar
    27   15   42 1
    28   16   43 1
    29   18   19 1
    30   19   20 2
    31   19   21 2
    32   19   22 1
    33   22   26 1
    34   22   23 2
    35   23   24 1
    36   23   44 1
    37   24   25 2
    38   24   45 1
    39   25   26 1
    40   25   27 1
    41   27   31 2
    42   27   28 1
    43   28   29 2
    44   28   46 1
    45   29   30 1
    46   29   32 1
    47   30   31 1
    48   32   33 1
    49   32   34 1
    50   32   35 1
@<TRIPOS>MOLECULE
ZINC34717659
   47    51     0     0     0
SMALL
USER_CHARGES

@<TRIPOS>ATOM
      1 C1         -0.0163    1.3532    0.0095 C.2       1 <0>        -0.1611
      2 C2          1.1779    2.0409    0.0018 C.2       1 <0>        -0.1123
      3 C3          2.3471    1.3290   -0.0132 C.2       1 <0>        -0.1005
      4 S1          1.7524   -0.3545   -0.0166 S.3       1 <0>         0.0858
      5 C4          0.0021   -0.0041    0.0020 C.2       1 <0>        -0.1600
      6 C5          3.7400    1.8251   -0.0243 C.2       1 <0>         0.2015
      7 C6          4.9019    1.0274   -0.0453 C.2       1 <0>        -0.2886
      8 C7          5.9766    1.8592   -0.0499 C.2       1 <0>         0.3476
      9 N1          5.5103    3.1388   -0.0324 N.pl3     1 <0>        -0.3244
     10 N2          4.1106    3.0902   -0.0219 N.2       1 <0>        -0.2536
     11 C8          6.2938    4.3005   -0.0299 C.ar      1 <0>         0.1400
     12 C9          7.5091    4.3180    0.6417 C.ar      1 <0>        -0.1170
     13 C10         8.2800    5.4638    0.6426 C.ar      1 <0>        -0.1243
     14 C11         7.8416    6.5950   -0.0252 C.ar      1 <0>         0.1044
     15 C12         6.6297    6.5798   -0.6952 C.ar      1 <0>        -0.1275
     16 C13         5.8587    5.4341   -0.7037 C.ar      1 <0>        -0.0751
     17 F1          8.5970    7.7151   -0.0228 F         1 <0>        -0.1297
     18 N3          7.3137    1.4729   -0.0684 N.pl3     1 <0>        -1.0313
     19 S2          7.7109   -0.1347   -0.0879 S.o2      1 <0>         2.7281
     20 O1          9.1296   -0.2019   -0.1314 O.2       1 <0>        -0.9183
     21 O2          6.9501   -0.7535    0.9404 O.2       1 <0>        -0.9131
     22 C14         7.1284   -0.7968   -1.6133 C.2       1 <0>        -0.7677
     23 C15         7.7724   -0.8888   -2.8059 C.2       1 <0>         0.0018
     24 C16         7.1185   -1.4494   -3.8798 C.2       1 <0>        -0.1361
     25 C17         5.8354   -1.8973   -3.7092 C.2       1 <0>        -0.0860
     26 S3          5.5426   -1.5266   -1.9874 S.3       1 <0>         0.2653
     27 C18         4.9308   -2.5282   -4.6927 C.2       1 <0>         0.1788
     28 C19         3.6045   -2.9655   -4.4486 C.2       1 <0>        -0.1901
     29 C20         3.1194   -3.4811   -5.5905 C.2       1 <0>        -0.0183
     30 O3          4.0709   -3.3890   -6.5329 O.3       1 <0>        -0.0276
     31 N4          5.2093   -2.7794   -5.9517 N.2       1 <0>        -0.2539
     32 C21         1.7426   -4.0637   -5.7807 C.3       1 <0>         0.5561
     33 F2          0.8608   -3.0548   -6.1828 F         1 <0>        -0.1528
     34 F3          1.7893   -5.0603   -6.7613 F         1 <0>        -0.1548
     35 F4          1.2995   -4.6167   -4.5744 F         1 <0>        -0.1496
     36 H1         -0.9549    1.8873    0.0258 H         1 <0>         0.1406
     37 H2          1.1912    3.1208    0.0071 H         1 <0>         0.1412
     38 H3         -0.8285   -0.6944    0.0065 H         1 <0>         0.1923
     39 H4          4.9327   -0.0521   -0.0555 H         1 <0>         0.1609
     40 H5          7.8511    3.4362    1.1632 H         1 <0>         0.1402
     41 H6          9.2253    5.4778    1.1648 H         1 <0>         0.1523
     42 H7          6.2892    7.4632   -1.2148 H         1 <0>         0.1504
     43 H8          4.9159    5.4211   -1.2303 H         1 <0>         0.1492
     44 H9          8.7845   -0.5265   -2.9103 H         1 <0>         0.1617
     45 H10         7.6078   -1.5341   -4.8389 H         1 <0>         0.1579
     46 H11         3.0767   -2.8968   -3.5089 H         1 <0>         0.1846
     47 H12         8.0128    2.1453   -0.0699 H         1 <0>         0.4331
@<TRIPOS>BOND
     1    1    5 2
     2    1    2 1
     3    1   36 1
     4    2    3 2
     5    2   37 1
     6    3    4 1
     7    3    6 1
     8    4    5 1
     9    5   38 1
    10    6   10 2
    11    6    7 1
    12    7    8 2
    13    7   39 1
    14    8    9 1
    15    8   18 1
    16    9   10 1
    17    9   11 1
    18   11   16 ar
    19   11   12 ar
    20   12   13 ar
    21   12   40 1
    22   13   14 ar
    23   13   41 1
    24   14   15 ar
    25   14   17 1
    26   15   16 ar
    27   15   42 1
    28   16   43 1
    29   18   19 1
    30   18   47 1
    31   19   20 2
    32   19   21 2
    33   19   22 1
    34   22   26 1
    35   22   23 2
    36   23   24 1
    37   23   44 1
    38   24   25 2
    39   24   45 1
    40   25   26 1
    41   25   27 1
    42   27   31 2
    43   27   28 1
    44   28   29 2
    45   28   46 1
    46   29   30 1
    47   29   32 1
    48   30   31 1
    49   32   33 1
    50   32   34 1
    51   32   35 1
@<TRIPOS>MOLECULE
ZINC08022594
   47    49     0     0     0
SMALL
USER_CHARGES

@<TRIPOS>ATOM
      1 C1         -0.0184    1.5028    0.0103 C.3       1 <0>        -0.1057
      2 C2          0.0021   -0.0041    0.0020 C.ar      1 <0>        -0.1055
      3 C3          0.0057   -0.6878   -1.1980 C.ar      1 <0>        -0.0578
      4 C4          0.0246   -2.0766   -1.2053 C.ar      1 <0>        -0.1393
      5 C5          0.0397   -2.7765   -0.0051 C.ar      1 <0>        -0.0936
      6 C6          0.0360   -2.0909    1.1933 C.ar      1 <0>        -0.1958
      7 C7          0.0229   -0.7036    1.1994 C.ar      1 <0>         0.1428
      8 O1          0.0254   -0.0293    2.3804 O.3       1 <0>        -0.2743
      9 C8          0.0474   -0.8131    3.5751 C.3       1 <0>        -0.0087
     10 C9          0.0468    0.0992    4.7746 C.2       1 <0>         0.5015
     11 O2          0.0293    1.3085    4.6207 O.co2     1 <0>        -0.6695
     12 O3          0.0640   -0.3721    5.8989 O.co2     1 <0>        -0.6867
     13 S1          0.0286   -2.9502   -2.7355 S.3       1 <0>        -0.1068
     14 C10         0.0549   -4.6962   -2.2439 C.3       1 <0>        -0.0216
     15 C11         0.0604   -5.5647   -3.4755 C.2       1 <0>        -0.1482
     16 C12         1.1098   -6.0555   -4.1871 C.2       1 <0>         0.0771
     17 N1          0.8913   -6.8034   -5.2429 N.2       1 <0>        -0.4749
     18 C13        -0.3404   -7.0952   -5.6368 C.2       1 <0>         0.1220
     19 S2         -1.3116   -6.2421   -4.4014 S.3       1 <0>         0.0640
     20 C14        -0.7899   -7.9110   -6.7852 C.ar      1 <0>         0.0575
     21 C15        -2.1529   -8.0893   -7.0271 C.ar      1 <0>        -0.1078
     22 C16        -2.5672   -8.8514   -8.0998 C.ar      1 <0>        -0.0372
     23 C17        -1.6352   -9.4396   -8.9359 C.ar      1 <0>        -0.2128
     24 C18        -0.2805   -9.2673   -8.7023 C.ar      1 <0>         0.1568
     25 C19         0.1466   -8.5008   -7.6344 C.ar      1 <0>        -0.1127
     26 F1          0.6243   -9.8446   -9.5229 F         1 <0>        -0.1169
     27 C20        -2.0954  -10.2716  -10.1052 C.3       1 <0>         0.5137
     28 F2         -3.4937  -10.3004  -10.1354 F         1 <0>        -0.1713
     29 F3         -1.6147   -9.7117  -11.2938 F         1 <0>        -0.1702
     30 F4         -1.6048  -11.5750   -9.9719 F         1 <0>        -0.1704
     31 C21         2.5216   -5.7406   -3.7642 C.3       1 <0>        -0.0908
     32 H1          1.0042    1.8801    0.0026 H         1 <0>         0.0690
     33 H2         -0.5455    1.8639   -0.8728 H         1 <0>         0.0611
     34 H3         -0.5286    1.8543    0.9071 H         1 <0>         0.0803
     35 H4         -0.0064   -0.1428   -2.1303 H         1 <0>         0.1298
     36 H5          0.0540   -3.8564   -0.0097 H         1 <0>         0.1186
     37 H6          0.0478   -2.6347    2.1263 H         1 <0>         0.1328
     38 H7         -0.8339   -1.4538    3.6055 H         1 <0>         0.0595
     39 H8          0.9458   -1.4302    3.5883 H         1 <0>         0.0598
     40 H9          0.9506   -4.8945   -1.6554 H         1 <0>         0.1159
     41 H10        -0.8291   -4.9187   -1.6464 H         1 <0>         0.1066
     42 H11        -2.8822   -7.6315   -6.3752 H         1 <0>         0.1483
     43 H12        -3.6218   -8.9894   -8.2871 H         1 <0>         0.1590
     44 H13         1.2026   -8.3626   -7.4552 H         1 <0>         0.1622
     45 H14         2.8716   -6.5040   -3.0694 H         1 <0>         0.0782
     46 H15         3.1684   -5.7238   -4.6414 H         1 <0>         0.0797
     47 H16         2.5460   -4.7664   -3.2761 H         1 <0>         0.0824
@<TRIPOS>BOND
     1    1    2 1
     2    1   32 1
     3    1   33 1
     4    1   34 1
     5    2    7 ar
     6    2    3 ar
     7    3    4 ar
     8    3   35 1
     9    4    5 ar
    10    4   13 1
    11    5    6 ar
    12    5   36 1
    13    6    7 ar
    14    6   37 1
    15    7    8 1
    16    8    9 1
    17    9   10 1
    18    9   38 1
    19    9   39 1
    20   10   11 2
    21   10   12 1
    22   13   14 1
    23   14   15 1
    24   14   40 1
    25   14   41 1
    26   15   19 1
    27   15   16 2
    28   16   17 1
    29   16   31 1
    30   17   18 2
    31   18   19 1
    32   18   20 1
    33   20   25 ar
    34   20   21 ar
    35   21   22 ar
    36   21   42 1
    37   22   23 ar
    38   22   43 1
    39   23   24 ar
    40   23   27 1
    41   24   25 ar
    42   24   26 1
    43   25   44 1
    44   27   28 1
    45   27   29 1
    46   27   30 1
    47   31   45 1
    48   31   46 1
    49   31   47 1
@<TRIPOS>MOLECULE
ZINC01549989
   47    49     0     0     0
SMALL
USER_CHARGES

@<TRIPOS>ATOM
      1 C1         -2.5043    0.0232    0.0377 C.3       1 <0>        -0.1059
      2 C2         -1.1897   -0.7133    0.0154 C.ar      1 <0>        -0.1042
      3 C3         -1.1722   -2.0943    0.0029 C.ar      1 <0>        -0.0582
      4 C4          0.0397   -2.7728   -0.0118 C.ar      1 <0>        -0.1370
      5 C5          1.2330   -2.0613   -0.0199 C.ar      1 <0>        -0.0938
      6 C6          1.2131   -0.6808   -0.0132 C.ar      1 <0>        -0.1941
      7 C7          0.0021   -0.0041    0.0020 C.ar      1 <0>         0.1425
      8 O1         -0.0164    1.3558    0.0095 O.3       1 <0>        -0.2805
      9 C8          1.2479    2.0218    0.0010 C.3       1 <0>         0.0163
     10 C9          1.0302    3.5130    0.0111 C.2       1 <0>         0.4694
     11 O2         -0.0924    3.9596    0.0242 O.co2     1 <0>        -0.6124
     12 S1          0.0636   -4.5346   -0.0209 S.3       1 <0>        -0.1072
     13 C10         1.8294   -4.9495   -0.0402 C.3       1 <0>        -0.0196
     14 C11         1.9934   -6.4475   -0.0494 C.2       1 <0>        -0.1541
     15 C12         2.0777   -7.3053   -1.1008 C.2       1 <0>         0.0788
     16 N1          2.2206   -8.5918   -0.8854 N.2       1 <0>        -0.4809
     17 C13         2.2855   -9.0806    0.3451 C.2       1 <0>         0.1336
     18 S2          2.1390   -7.5888    1.3199 S.3       1 <0>         0.0503
     19 C14         2.4434  -10.4815    0.7913 C.ar      1 <0>         0.0239
     20 C15         2.4951  -10.7815    2.1531 C.ar      1 <0>        -0.0953
     21 C16         2.6378  -12.0912    2.5629 C.ar      1 <0>        -0.0656
     22 C17         2.7402  -13.1048    1.6268 C.ar      1 <0>        -0.1707
     23 C18         2.6950  -12.8134    0.2751 C.ar      1 <0>        -0.0684
     24 C19         2.5473  -11.5085   -0.1478 C.ar      1 <0>        -0.0736
     25 C20         2.9023  -14.5324    2.0815 C.3       1 <0>         0.5086
     26 F1          4.2634  -14.8294    2.2096 F         1 <0>        -0.1744
     27 F2          2.2695  -14.7028    3.3176 F         1 <0>        -0.1752
     28 F3          2.3244  -15.3903    1.1396 F         1 <0>        -0.1751
     29 C21         2.0067   -6.7795   -2.5114 C.3       1 <0>        -0.0902
     30 H1         -2.8358    0.2058   -0.9845 H         1 <0>         0.0692
     31 H2         -3.2489   -0.5783    0.5591 H         1 <0>         0.0617
     32 H3         -2.3790    0.9746    0.5545 H         1 <0>         0.0796
     33 H4         -2.1004   -2.6463    0.0091 H         1 <0>         0.1302
     34 H5          2.1759   -2.5879   -0.0317 H         1 <0>         0.1195
     35 H6          2.1406   -0.1275   -0.0194 H         1 <0>         0.1341
     36 H7          1.8173    1.7318    0.8840 H         1 <0>         0.0668
     37 H8          1.8003    1.7414   -0.8958 H         1 <0>         0.0670
     38 H9          2.2919   -4.5279   -0.9326 H         1 <0>         0.1149
     39 H10         2.3093   -4.5368    0.8472 H         1 <0>         0.1057
     40 H11         2.4194   -9.9907    2.8848 H         1 <0>         0.1405
     41 H12         2.6742  -12.3252    3.6166 H         1 <0>         0.1456
     42 H13         2.7751  -13.6092   -0.4506 H         1 <0>         0.1451
     43 H14         2.5125  -11.2823   -1.2033 H         1 <0>         0.1494
     44 H15         3.0110   -6.5406   -2.8611 H         1 <0>         0.0775
     45 H16         1.5669   -7.5372   -3.1598 H         1 <0>         0.0790
     46 H17         1.3908   -5.8805   -2.5334 H         1 <0>         0.0816
     47 O3          2.0835    4.3451    0.0055 O.co2     1 <0>        -0.7545
@<TRIPOS>BOND
     1    1    2 1
     2    1   30 1
     3    1   31 1
     4    1   32 1
     5    2    7 ar
     6    2    3 ar
     7    3    4 ar
     8    3   33 1
     9    4    5 ar
    10    4   12 1
    11    5    6 ar
    12    5   34 1
    13    6    7 ar
    14    6   35 1
    15    7    8 1
    16    8    9 1
    17    9   10 1
    18    9   36 1
    19    9   37 1
    20   10   11 2
    21   10   47 1
    22   12   13 1
    23   13   14 1
    24   13   38 1
    25   13   39 1
    26   14   18 1
    27   14   15 2
    28   15   16 1
    29   15   29 1
    30   16   17 2
    31   17   18 1
    32   17   19 1
    33   19   24 ar
    34   19   20 ar
    35   20   21 ar
    36   20   40 1
    37   21   22 ar
    38   21   41 1
    39   22   23 ar
    40   22   25 1
    41   23   24 ar
    42   23   42 1
    43   24   43 1
    44   25   26 1
    45   25   27 1
    46   25   28 1
    47   29   44 1
    48   29   45 1
    49   29   46 1
@<TRIPOS>MOLECULE
ZINC00968276
   58    61     0     0     0
SMALL
USER_CHARGES

@<TRIPOS>ATOM
      1 C1         -0.0184    1.5028    0.0103 C.3       1 <0>        -0.1111
      2 C2          0.0021   -0.0041    0.0020 C.ar      1 <0>        -0.0764
      3 C3          0.0058   -0.6885   -1.1962 C.ar      1 <0>        -0.1043
      4 C4          0.0234   -2.0792   -1.2096 C.ar      1 <0>         0.1355
      5 C5          0.0353   -2.7782   -0.0153 C.ar      1 <0>        -0.1506
      6 C6          0.0347   -2.0906    1.1864 C.ar      1 <0>        -0.0770
      7 C7          0.0230   -0.7049    1.1985 C.ar      1 <0>         0.0724
      8 O1          0.0266   -0.0338    2.3812 O.3       1 <0>        -0.4890
      9 C8          0.0517   -2.8521    2.4867 C.3       1 <0>        -0.1105
     10 C9          0.0431   -4.2857    0.0126 C.3       1 <0>        -0.0735
     11 C10         0.4796   -4.8247   -1.3519 C.3       1 <0>        -0.1472
     12 C11        -0.3249   -4.0977   -2.4370 C.3       1 <0>         0.1220
     13 O2          0.0315   -2.7149   -2.4113 O.3       1 <0>        -0.2932
     14 C12        -1.8215   -4.2494   -2.1576 C.3       1 <0>        -0.1745
     15 C13         0.0067   -4.6900   -3.8082 C.3       1 <0>         0.0753
     16 O3         -0.7449   -4.0097   -4.8153 O.3       1 <0>        -0.3005
     17 C14        -0.5659   -4.4169   -6.0994 C.ar      1 <0>         0.1386
     18 C15         0.3108   -5.4539   -6.3837 C.ar      1 <0>        -0.2088
     19 C16         0.4906   -5.8664   -7.6898 C.ar      1 <0>        -0.0596
     20 C17        -0.2018   -5.2463   -8.7134 C.ar      1 <0>        -0.1376
     21 C18        -1.0758   -4.2123   -8.4328 C.ar      1 <0>        -0.0668
     22 C19        -1.2638   -3.8002   -7.1277 C.ar      1 <0>        -0.1497
     23 C20        -0.0033   -5.6980  -10.1373 C.3       1 <0>        -0.0499
     24 C21        -1.0109   -6.8009  -10.4677 C.3       1 <0>        -0.0707
     25 H1         -2.0308   -6.4776  -10.2594 H         1 <0>         0.1616
     26 C22        -0.8627   -7.2736  -11.9071 C.2       1 <0>         0.5300
     27 O4         -1.0440   -6.5371  -12.8530 O.2       1 <0>        -0.4575
     28 N1         -0.5222   -8.5428  -12.0547 N.am      1 <0>        -0.6898
     29 C23        -0.3149   -9.3803  -11.0216 C.2       1 <0>         0.5617
     30 O5         -0.0013  -10.5543  -11.0595 O.2       1 <0>        -0.4171
     31 S1         -0.6090   -8.3635   -9.5802 S.3       1 <0>        -0.1445
     32 C24        -0.0098    0.0742   -2.4958 C.3       1 <0>        -0.1077
     33 H2          1.0042    1.8801    0.0026 H         1 <0>         0.0744
     34 H3         -0.5455    1.8639   -0.8728 H         1 <0>         0.0718
     35 H4         -0.5286    1.8543    0.9071 H         1 <0>         0.0683
     36 H5         -0.8557    0.1493    2.7322 H         1 <0>         0.3824
     37 H6          1.0833   -3.0237    2.7939 H         1 <0>         0.0736
     38 H7         -0.4642   -2.2739    3.2533 H         1 <0>         0.0690
     39 H8         -0.4518   -3.8097    2.3536 H         1 <0>         0.0669
     40 H9          0.7383   -4.6307    0.7781 H         1 <0>         0.0865
     41 H10        -0.9583   -4.6494    0.2427 H         1 <0>         0.0824
     42 H11         1.5438   -4.6388   -1.4970 H         1 <0>         0.0818
     43 H12         0.2827   -5.8955   -1.4040 H         1 <0>         0.0892
     44 H13        -2.0550   -3.8177   -1.1844 H         1 <0>         0.0678
     45 H14        -2.3897   -3.7317   -2.9304 H         1 <0>         0.0758
     46 H15        -2.0860   -5.3068   -2.1590 H         1 <0>         0.0726
     47 H16         1.0718   -4.5713   -4.0073 H         1 <0>         0.0744
     48 H17        -0.2488   -5.7496   -3.8177 H         1 <0>         0.0849
     49 H18         0.8524   -5.9381   -5.5846 H         1 <0>         0.1286
     50 H19         1.1730   -6.6736   -7.9116 H         1 <0>         0.1304
     51 H20        -1.6152   -3.7293   -9.2341 H         1 <0>         0.1326
     52 H21        -1.9499   -2.9955   -6.9085 H         1 <0>         0.1329
     53 H22        -0.1545   -4.8542  -10.8106 H         1 <0>         0.1059
     54 H23         1.0093   -6.0827  -10.2587 H         1 <0>         0.0901
     55 H24        -0.4165   -8.8885  -12.9548 H         1 <0>         0.4184
     56 H25         1.0140    0.2714   -2.8136 H         1 <0>         0.0685
     57 H26        -0.5192   -0.5162   -3.2574 H         1 <0>         0.0726
     58 H27        -0.5354    1.0188   -2.3565 H         1 <0>         0.0685
@<TRIPOS>BOND
     1    1    2 1
     2    1   33 1
     3    1   34 1
     4    1   35 1
     5    2    7 ar
     6    2    3 ar
     7    3    4 ar
     8    3   32 1
     9    4   13 1
    10    4    5 ar
    11    5    6 ar
    12    5   10 1
    13    6    7 ar
    14    6    9 1
    15    7    8 1
    16    8   36 1
    17    9   37 1
    18    9   38 1
    19    9   39 1
    20   10   11 1
    21   10   40 1
    22   10   41 1
    23   11   12 1
    24   11   42 1
    25   11   43 1
    26   12   13 1
    27   12   14 1
    28   12   15 1
    29   14   44 1
    30   14   45 1
    31   14   46 1
    32   15   16 1
    33   15   47 1
    34   15   48 1
    35   16   17 1
    36   17   22 ar
    37   17   18 ar
    38   18   19 ar
    39   18   49 1
    40   19   20 ar
    41   19   50 1
    42   20   21 ar
    43   20   23 1
    44   21   22 ar
    45   21   51 1
    46   22   52 1
    47   23   24 1
    48   23   53 1
    49   23   54 1
    50   24   25 1
    51   24   31 1
    52   24   26 1
    53   26   27 2
    54   26   28 am
    55   28   29 am
    56   28   55 1
    57   29   30 2
    58   29   31 1
    59   32   56 1
    60   32   57 1
    61   32   58 1
@<TRIPOS>MOLECULE
ZINC00968277
   58    61     0     0     0
SMALL
USER_CHARGES

@<TRIPOS>ATOM
      1 C1         -0.0184    1.5028    0.0103 C.3       1 <0>        -0.1111
      2 C2          0.0021   -0.0041    0.0020 C.ar      1 <0>        -0.0764
      3 C3          0.0058   -0.6885   -1.1962 C.ar      1 <0>        -0.1045
      4 C4          0.0259   -2.0791   -1.2097 C.ar      1 <0>         0.1360
      5 C5          0.0449   -2.7781   -0.0153 C.ar      1 <0>        -0.1505
      6 C6          0.0389   -2.0905    1.1864 C.ar      1 <0>        -0.0772
      7 C7          0.0230   -0.7049    1.1985 C.ar      1 <0>         0.0727
      8 O1          0.0225   -0.0339    2.3812 O.3       1 <0>        -0.4893
      9 C8          0.0545   -2.8521    2.4867 C.3       1 <0>        -0.1116
     10 C9          0.0784   -4.2852    0.0124 C.3       1 <0>        -0.0748
     11 C10        -0.3568   -4.8361   -1.3477 C.3       1 <0>        -0.1472
     12 C11         0.4167   -4.0876   -2.4407 C.3       1 <0>         0.1227
     13 O2          0.0230   -2.7150   -2.4113 O.3       1 <0>        -0.2955
     14 C12         1.9196   -4.1985   -2.1763 C.3       1 <0>        -0.1739
     15 C13         0.0877   -4.6889   -3.8086 C.3       1 <0>         0.0750
     16 O3          0.8967   -4.0672   -4.8092 O.3       1 <0>        -0.3013
     17 C14         0.7274   -4.4898   -6.0897 C.ar      1 <0>         0.1386
     18 C15        -0.2023   -5.4783   -6.3780 C.ar      1 <0>        -0.2086
     19 C16        -0.3729   -5.9058   -7.6805 C.ar      1 <0>        -0.0597
     20 C17         0.3824   -5.3496   -8.6964 C.ar      1 <0>        -0.1376
     21 C18         1.3100   -4.3646   -8.4116 C.ar      1 <0>        -0.0668
     22 C19         1.4799   -3.9293   -7.1116 C.ar      1 <0>        -0.1496
     23 C20         0.1947   -5.8182  -10.1163 C.3       1 <0>        -0.0497
     24 C21        -0.8800   -4.9676  -10.7962 C.3       1 <0>        -0.0711
     25 H1         -0.6458   -3.9055  -10.7233 H         1 <0>         0.1617
     26 C22        -1.0881   -5.3909  -12.2435 C.2       1 <0>         0.5302
     27 O4         -0.2079   -5.3152  -13.0738 O.2       1 <0>        -0.4576
     28 N1         -2.2951   -5.8473  -12.5326 N.am      1 <0>        -0.6898
     29 C23        -3.2886   -5.9416  -11.6296 C.2       1 <0>         0.5615
     30 O5         -4.4223   -6.3458  -11.8015 O.2       1 <0>        -0.4172
     31 S1         -2.5524   -5.3330  -10.1177 S.3       1 <0>        -0.1438
     32 C24        -0.0125    0.0741   -2.4958 C.3       1 <0>        -0.1068
     33 H2          1.0042    1.8801    0.0026 H         1 <0>         0.0744
     34 H3         -0.5455    1.8639   -0.8728 H         1 <0>         0.0718
     35 H4         -0.5286    1.8543    0.9071 H         1 <0>         0.0684
     36 H5         -0.8609    0.1466    2.7307 H         1 <0>         0.3827
     37 H6          1.0859   -3.0205    2.7967 H         1 <0>         0.0736
     38 H7         -0.4653   -2.2755    3.2518 H         1 <0>         0.0686
     39 H8         -0.4456   -3.8112    2.3521 H         1 <0>         0.0684
     40 H9          1.0917   -4.6215    0.2325 H         1 <0>         0.0827
     41 H10        -0.5994   -4.6489    0.7847 H         1 <0>         0.0880
     42 H11        -0.1314   -5.9011   -1.4019 H         1 <0>         0.0890
     43 H12        -1.4271   -4.6792   -1.4822 H         1 <0>         0.0817
     44 H13         2.2128   -5.2483   -2.1804 H         1 <0>         0.0723
     45 H14         2.4658   -3.6656   -2.9547 H         1 <0>         0.0765
     46 H15         2.1510   -3.7605   -1.2053 H         1 <0>         0.0676
     47 H16         0.2889   -5.7600   -3.7925 H         1 <0>         0.0848
     48 H17        -0.9649   -4.5203   -4.0359 H         1 <0>         0.0752
     49 H18        -0.7920   -5.9135   -5.5848 H         1 <0>         0.1287
     50 H19        -1.0965   -6.6753   -7.9055 H         1 <0>         0.1304
     51 H20         1.8990   -3.9320   -9.2068 H         1 <0>         0.1326
     52 H21         2.2014   -3.1568   -6.8902 H         1 <0>         0.1329
     53 H22         1.1346   -5.7181  -10.6592 H         1 <0>         0.1059
     54 H23        -0.1153   -6.8632  -10.1161 H         1 <0>         0.0900
     55 H24        -2.4739   -6.1287  -13.4435 H         1 <0>         0.4183
     56 H25         1.0107    0.2732   -2.8147 H         1 <0>         0.0692
     57 H26        -0.5217   -0.5171   -3.2569 H         1 <0>         0.0712
     58 H27        -0.5396    1.0179   -2.3559 H         1 <0>         0.0684
@<TRIPOS>BOND
     1    1    2 1
     2    1   33 1
     3    1   34 1
     4    1   35 1
     5    2    7 ar
     6    2    3 ar
     7    3    4 ar
     8    3   32 1
     9    4   13 1
    10    4    5 ar
    11    5    6 ar
    12    5   10 1
    13    6    7 ar
    14    6    9 1
    15    7    8 1
    16    8   36 1
    17    9   37 1
    18    9   38 1
    19    9   39 1
    20   10   11 1
    21   10   40 1
    22   10   41 1
    23   11   12 1
    24   11   42 1
    25   11   43 1
    26   12   13 1
    27   12   14 1
    28   12   15 1
    29   14   44 1
    30   14   45 1
    31   14   46 1
    32   15   16 1
    33   15   47 1
    34   15   48 1
    35   16   17 1
    36   17   22 ar
    37   17   18 ar
    38   18   19 ar
    39   18   49 1
    40   19   20 ar
    41   19   50 1
    42   20   21 ar
    43   20   23 1
    44   21   22 ar
    45   21   51 1
    46   22   52 1
    47   23   24 1
    48   23   53 1
    49   23   54 1
    50   24   25 1
    51   24   31 1
    52   24   26 1
    53   26   27 2
    54   26   28 am
    55   28   29 am
    56   28   55 1
    57   29   30 2
    58   29   31 1
    59   32   56 1
    60   32   57 1
    61   32   58 1
@<TRIPOS>MOLECULE
ZINC00968278
   58    61     0     0     0
SMALL
USER_CHARGES

@<TRIPOS>ATOM
      1 C1         -0.0184    1.5028    0.0103 C.3       1 <0>        -0.1111
      2 C2          0.0021   -0.0041    0.0020 C.ar      1 <0>        -0.0763
      3 C3          0.0058   -0.6885   -1.1962 C.ar      1 <0>        -0.1041
      4 C4          0.0234   -2.0792   -1.2096 C.ar      1 <0>         0.1354
      5 C5          0.0353   -2.7782   -0.0153 C.ar      1 <0>        -0.1507
      6 C6          0.0347   -2.0906    1.1864 C.ar      1 <0>        -0.0771
      7 C7          0.0230   -0.7049    1.1985 C.ar      1 <0>         0.0724
      8 O1          0.0266   -0.0338    2.3812 O.3       1 <0>        -0.4891
      9 C8          0.0517   -2.8521    2.4867 C.3       1 <0>        -0.1104
     10 C9          0.0431   -4.2857    0.0126 C.3       1 <0>        -0.0735
     11 C10         0.4796   -4.8247   -1.3519 C.3       1 <0>        -0.1471
     12 C11        -0.3249   -4.0977   -2.4370 C.3       1 <0>         0.1220
     13 O2          0.0315   -2.7149   -2.4113 O.3       1 <0>        -0.2931
     14 C12        -1.8215   -4.2494   -2.1576 C.3       1 <0>        -0.1746
     15 C13         0.0067   -4.6900   -3.8082 C.3       1 <0>         0.0755
     16 O3         -0.7449   -4.0097   -4.8153 O.3       1 <0>        -0.3002
     17 C14        -0.5659   -4.4169   -6.0994 C.ar      1 <0>         0.1385
     18 C15         0.3108   -5.4539   -6.3837 C.ar      1 <0>        -0.2105
     19 C16         0.4906   -5.8664   -7.6898 C.ar      1 <0>        -0.0660
     20 C17        -0.2018   -5.2463   -8.7134 C.ar      1 <0>        -0.1373
     21 C18        -1.0758   -4.2123   -8.4328 C.ar      1 <0>        -0.0608
     22 C19        -1.2638   -3.8002   -7.1277 C.ar      1 <0>        -0.1478
     23 C20        -0.0033   -5.6980  -10.1373 C.3       1 <0>        -0.0500
     24 C21        -1.0109   -6.8009  -10.4677 C.3       1 <0>        -0.0715
     25 H1         -0.9514   -7.6170   -9.7476 H         1 <0>         0.1607
     26 C22        -0.8324   -7.3056  -11.8928 C.2       1 <0>         0.5303
     27 O4          0.1892   -7.8399  -12.2678 O.2       1 <0>        -0.4583
     28 N1         -1.8687   -7.1214  -12.6932 N.am      1 <0>        -0.6899
     29 C23        -3.0135   -6.5318  -12.3013 C.2       1 <0>         0.5613
     30 O5         -4.0124   -6.3209  -12.9614 O.2       1 <0>        -0.4166
     31 S1         -2.7227   -6.1323  -10.5826 S.3       1 <0>        -0.1419
     32 C24        -0.0098    0.0742   -2.4958 C.3       1 <0>        -0.1078
     33 H2          1.0042    1.8801    0.0026 H         1 <0>         0.0744
     34 H3         -0.5455    1.8639   -0.8728 H         1 <0>         0.0719
     35 H4         -0.5286    1.8543    0.9071 H         1 <0>         0.0683
     36 H5         -0.8557    0.1493    2.7322 H         1 <0>         0.3824
     37 H6          1.0833   -3.0237    2.7939 H         1 <0>         0.0735
     38 H7         -0.4642   -2.2739    3.2533 H         1 <0>         0.0690
     39 H8         -0.4518   -3.8097    2.3536 H         1 <0>         0.0669
     40 H9          0.7383   -4.6307    0.7781 H         1 <0>         0.0864
     41 H10        -0.9583   -4.6494    0.2427 H         1 <0>         0.0824
     42 H11         1.5438   -4.6388   -1.4970 H         1 <0>         0.0817
     43 H12         0.2827   -5.8955   -1.4040 H         1 <0>         0.0889
     44 H13        -2.0550   -3.8177   -1.1844 H         1 <0>         0.0679
     45 H14        -2.3897   -3.7317   -2.9304 H         1 <0>         0.0761
     46 H15        -2.0860   -5.3068   -2.1590 H         1 <0>         0.0725
     47 H16         1.0718   -4.5713   -4.0073 H         1 <0>         0.0742
     48 H17        -0.2488   -5.7496   -3.8177 H         1 <0>         0.0843
     49 H18         0.8524   -5.9381   -5.5846 H         1 <0>         0.1283
     50 H19         1.1730   -6.6736   -7.9116 H         1 <0>         0.1279
     51 H20        -1.6152   -3.7293   -9.2341 H         1 <0>         0.1349
     52 H21        -1.9499   -2.9955   -6.9085 H         1 <0>         0.1334
     53 H22        -0.1545   -4.8542  -10.8106 H         1 <0>         0.0909
     54 H23         1.0093   -6.0827  -10.2587 H         1 <0>         0.1050
     55 H24        -1.8002   -7.4270  -13.6113 H         1 <0>         0.4183
     56 H25         1.0140    0.2714   -2.8136 H         1 <0>         0.0685
     57 H26        -0.5192   -0.5162   -3.2574 H         1 <0>         0.0728
     58 H27        -0.5354    1.0188   -2.3565 H         1 <0>         0.0686
@<TRIPOS>BOND
     1    1    2 1
     2    1   33 1
     3    1   34 1
     4    1   35 1
     5    2    7 ar
     6    2    3 ar
     7    3    4 ar
     8    3   32 1
     9    4   13 1
    10    4    5 ar
    11    5    6 ar
    12    5   10 1
    13    6    7 ar
    14    6    9 1
    15    7    8 1
    16    8   36 1
    17    9   37 1
    18    9   38 1
    19    9   39 1
    20   10   11 1
    21   10   40 1
    22   10   41 1
    23   11   12 1
    24   11   42 1
    25   11   43 1
    26   12   13 1
    27   12   14 1
    28   12   15 1
    29   14   44 1
    30   14   45 1
    31   14   46 1
    32   15   16 1
    33   15   47 1
    34   15   48 1
    35   16   17 1
    36   17   22 ar
    37   17   18 ar
    38   18   19 ar
    39   18   49 1
    40   19   20 ar
    41   19   50 1
    42   20   21 ar
    43   20   23 1
    44   21   22 ar
    45   21   51 1
    46   22   52 1
    47   23   24 1
    48   23   53 1
    49   23   54 1
    50   24   25 1
    51   24   31 1
    52   24   26 1
    53   26   27 2
    54   26   28 am
    55   28   29 am
    56   28   55 1
    57   29   30 2
    58   29   31 1
    59   32   56 1
    60   32   57 1
    61   32   58 1
@<TRIPOS>MOLECULE
ZINC00968279
   58    61     0     0     0
SMALL
USER_CHARGES

@<TRIPOS>ATOM
      1 C1         -0.0184    1.5028    0.0103 C.3       1 <0>        -0.1112
      2 C2          0.0021   -0.0041    0.0020 C.ar      1 <0>        -0.0763
      3 C3          0.0058   -0.6885   -1.1962 C.ar      1 <0>        -0.1043
      4 C4          0.0259   -2.0791   -1.2097 C.ar      1 <0>         0.1359
      5 C5          0.0449   -2.7781   -0.0153 C.ar      1 <0>        -0.1505
      6 C6          0.0389   -2.0905    1.1864 C.ar      1 <0>        -0.0773
      7 C7          0.0230   -0.7049    1.1985 C.ar      1 <0>         0.0728
      8 O1          0.0225   -0.0339    2.3812 O.3       1 <0>        -0.4892
      9 C8          0.0545   -2.8521    2.4867 C.3       1 <0>        -0.1115
     10 C9          0.0784   -4.2852    0.0124 C.3       1 <0>        -0.0748
     11 C10        -0.3568   -4.8361   -1.3477 C.3       1 <0>        -0.1471
     12 C11         0.4167   -4.0876   -2.4407 C.3       1 <0>         0.1226
     13 O2          0.0230   -2.7150   -2.4113 O.3       1 <0>        -0.2955
     14 C12         1.9196   -4.1985   -2.1763 C.3       1 <0>        -0.1741
     15 C13         0.0877   -4.6889   -3.8086 C.3       1 <0>         0.0752
     16 O3          0.8967   -4.0672   -4.8092 O.3       1 <0>        -0.3010
     17 C14         0.7274   -4.4898   -6.0897 C.ar      1 <0>         0.1385
     18 C15        -0.2023   -5.4783   -6.3780 C.ar      1 <0>        -0.2103
     19 C16        -0.3729   -5.9058   -7.6805 C.ar      1 <0>        -0.0661
     20 C17         0.3824   -5.3496   -8.6964 C.ar      1 <0>        -0.1373
     21 C18         1.3100   -4.3646   -8.4116 C.ar      1 <0>        -0.0608
     22 C19         1.4799   -3.9293   -7.1116 C.ar      1 <0>        -0.1478
     23 C20         0.1947   -5.8182  -10.1163 C.3       1 <0>        -0.0498
     24 C21        -0.8800   -4.9676  -10.7962 C.3       1 <0>        -0.0719
     25 H1         -1.8051   -4.9676  -10.2196 H         1 <0>         0.1608
     26 C22        -1.1207   -5.4207  -12.2294 C.2       1 <0>         0.5304
     27 O4         -1.5333   -6.5286  -12.4981 O.2       1 <0>        -0.4585
     28 N1         -0.8490   -4.5225  -13.1610 N.am      1 <0>        -0.6899
     29 C23        -0.3906   -3.2866  -12.8889 C.2       1 <0>         0.5610
     30 O5         -0.1152   -2.3994  -13.6732 O.2       1 <0>        -0.4166
     31 S1         -0.2824   -3.2533  -11.1041 S.3       1 <0>        -0.1412
     32 C24        -0.0125    0.0741   -2.4958 C.3       1 <0>        -0.1069
     33 H2          1.0042    1.8801    0.0026 H         1 <0>         0.0745
     34 H3         -0.5455    1.8639   -0.8728 H         1 <0>         0.0719
     35 H4         -0.5286    1.8543    0.9071 H         1 <0>         0.0683
     36 H5         -0.8609    0.1466    2.7307 H         1 <0>         0.3826
     37 H6          1.0859   -3.0205    2.7967 H         1 <0>         0.0736
     38 H7         -0.4653   -2.2755    3.2518 H         1 <0>         0.0686
     39 H8         -0.4456   -3.8112    2.3521 H         1 <0>         0.0683
     40 H9          1.0917   -4.6215    0.2325 H         1 <0>         0.0827
     41 H10        -0.5994   -4.6489    0.7847 H         1 <0>         0.0879
     42 H11        -0.1314   -5.9011   -1.4019 H         1 <0>         0.0889
     43 H12        -1.4271   -4.6792   -1.4822 H         1 <0>         0.0814
     44 H13         2.2128   -5.2483   -2.1804 H         1 <0>         0.0723
     45 H14         2.4658   -3.6656   -2.9547 H         1 <0>         0.0768
     46 H15         2.1510   -3.7605   -1.2053 H         1 <0>         0.0676
     47 H16         0.2889   -5.7600   -3.7925 H         1 <0>         0.0846
     48 H17        -0.9649   -4.5203   -4.0359 H         1 <0>         0.0747
     49 H18        -0.7920   -5.9135   -5.5848 H         1 <0>         0.1283
     50 H19        -1.0965   -6.6753   -7.9055 H         1 <0>         0.1279
     51 H20         1.8990   -3.9320   -9.2068 H         1 <0>         0.1349
     52 H21         2.2014   -3.1568   -6.8902 H         1 <0>         0.1334
     53 H22         1.1346   -5.7181  -10.6592 H         1 <0>         0.0908
     54 H23        -0.1153   -6.8632  -10.1161 H         1 <0>         0.1049
     55 H24        -0.9870   -4.7672  -14.0894 H         1 <0>         0.4183
     56 H25         1.0107    0.2732   -2.8147 H         1 <0>         0.0694
     57 H26        -0.5217   -0.5171   -3.2569 H         1 <0>         0.0712
     58 H27        -0.5396    1.0179   -2.3559 H         1 <0>         0.0685
@<TRIPOS>BOND
     1    1    2 1
     2    1   33 1
     3    1   34 1
     4    1   35 1
     5    2    7 ar
     6    2    3 ar
     7    3    4 ar
     8    3   32 1
     9    4   13 1
    10    4    5 ar
    11    5    6 ar
    12    5   10 1
    13    6    7 ar
    14    6    9 1
    15    7    8 1
    16    8   36 1
    17    9   37 1
    18    9   38 1
    19    9   39 1
    20   10   11 1
    21   10   40 1
    22   10   41 1
    23   11   12 1
    24   11   42 1
    25   11   43 1
    26   12   13 1
    27   12   14 1
    28   12   15 1
    29   14   44 1
    30   14   45 1
    31   14   46 1
    32   15   16 1
    33   15   47 1
    34   15   48 1
    35   16   17 1
    36   17   22 ar
    37   17   18 ar
    38   18   19 ar
    39   18   49 1
    40   19   20 ar
    41   19   50 1
    42   20   21 ar
    43   20   23 1
    44   21   22 ar
    45   21   51 1
    46   22   52 1
    47   23   24 1
    48   23   53 1
    49   23   54 1
    50   24   25 1
    51   24   31 1
    52   24   26 1
    53   26   27 2
    54   26   28 am
    55   28   29 am
    56   28   55 1
    57   29   30 2
    58   29   31 1
    59   32   56 1
    60   32   57 1
    61   32   58 1
@<TRIPOS>MOLECULE
ZINC00595076
   56    58     0     0     0
SMALL
USER_CHARGES
2-methyl-2-[4-[3-[5-oxo-1-(p-tolylmethyl)-4H-1,2,4-triazol-3-yl]propyl]phenoxy]-propanoic acid
@<TRIPOS>ATOM
      1 C1         -8.4684    0.2808   -3.4230 C.3       1 <0>        -0.1160
      2 C2         -7.3016    1.2256   -3.2928 C.ar      1 <0>        -0.0780
      3 C3         -7.0032    1.7905   -2.0670 C.ar      1 <0>        -0.1257
      4 C4         -5.9326    2.6568   -1.9475 C.ar      1 <0>        -0.0837
      5 C5         -5.1603    2.9579   -3.0537 C.ar      1 <0>        -0.1257
      6 C6         -5.4619    2.3971   -4.2806 C.ar      1 <0>        -0.0903
      7 C7         -6.5301    1.5277   -4.3993 C.ar      1 <0>        -0.1285
      8 C8         -3.9932    3.9023   -2.9233 C.3       1 <0>         0.2009
      9 N1         -2.7851    3.1428   -2.5917 N.am      1 <0>        -0.4458
     10 C9         -1.9103    2.6083   -3.4692 C.2       1 <0>         0.6477
     11 O1         -1.9794    2.6685   -4.6839 O.2       1 <0>        -0.5606
     12 N2         -0.9454    1.9960   -2.7540 N.am      1 <0>        -0.6602
     13 H1         -0.1813    1.5231   -3.1193 H         1 <0>         0.4359
     14 C10        -1.2295    2.1555   -1.4196 C.2       1 <0>         0.2765
     15 N3         -2.3263    2.8323   -1.3041 N.2       1 <0>        -0.2618
     16 C11        -0.4027    1.6237   -0.2774 C.3       1 <0>        -0.0437
     17 C12        -1.0560    2.0139    1.0500 C.3       1 <0>        -0.1074
     18 C13        -0.2167    1.4741    2.2097 C.3       1 <0>        -0.0655
     19 C14        -0.8602    1.8584    3.5171 C.ar      1 <0>        -0.1390
     20 C15        -0.5161    3.0478    4.1323 C.ar      1 <0>        -0.0875
     21 C16        -1.1087    3.4051    5.3280 C.ar      1 <0>        -0.1639
     22 C17        -2.0415    2.5638    5.9171 C.ar      1 <0>         0.1623
     23 C18        -2.3808    1.3683    5.3006 C.ar      1 <0>        -0.1683
     24 C19        -1.7895    1.0182    4.1021 C.ar      1 <0>        -0.0889
     25 O2         -2.6221    2.9106    7.0958 O.3       1 <0>        -0.3049
     26 C20        -2.1357    4.0921    7.7358 C.3       1 <0>         0.0579
     27 C21        -2.8766    4.2975    9.0585 C.3       1 <0>        -0.1160
     28 C22        -0.6374    3.9446    8.0081 C.3       1 <0>        -0.1759
     29 C23        -2.3688    5.2810    6.8396 C.2       1 <0>         0.4486
     30 O3         -2.8972    5.1319    5.7633 O.co2     1 <0>        -0.6128
     31 H2         -9.3676    0.8456   -3.6692 H         1 <0>         0.0712
     32 H3         -8.2649   -0.4411   -4.2139 H         1 <0>         0.0653
     33 H4         -8.6168   -0.2455   -2.4801 H         1 <0>         0.0671
     34 H5         -7.6062    1.5547   -1.2026 H         1 <0>         0.1244
     35 H6         -5.6994    3.0982   -0.9897 H         1 <0>         0.1287
     36 H7         -4.8612    2.6357   -5.1458 H         1 <0>         0.1252
     37 H8         -6.7635    1.0867   -5.3571 H         1 <0>         0.1212
     38 H9         -4.1967    4.6246   -2.1328 H         1 <0>         0.1059
     39 H10        -3.8443    4.4282   -3.8664 H         1 <0>         0.1025
     40 H11        -0.3424    0.5376   -0.3472 H         1 <0>         0.0967
     41 H12         0.6004    2.0472   -0.3269 H         1 <0>         0.0978
     42 H13        -1.1163    3.1000    1.1199 H         1 <0>         0.0771
     43 H14        -2.0592    1.5904    1.0995 H         1 <0>         0.0750
     44 H15        -0.1564    0.3880    2.1398 H         1 <0>         0.0664
     45 H16         0.7865    1.8976    2.1601 H         1 <0>         0.0672
     46 H17         0.2134    3.7003    3.6755 H         1 <0>         0.1139
     47 H18        -0.8429    4.3363    5.8060 H         1 <0>         0.1392
     48 H19        -3.1064    0.7115    5.7573 H         1 <0>         0.1194
     49 H20        -2.0536    0.0878    3.6216 H         1 <0>         0.1168
     50 H21        -2.6393    3.4795    9.7387 H         1 <0>         0.0528
     51 H22        -2.5677    5.2426    9.5051 H         1 <0>         0.0822
     52 H23        -3.9508    4.3167    8.8742 H         1 <0>         0.0574
     53 H24        -0.1260    3.6683    7.0860 H         1 <0>         0.0703
     54 H25        -0.2398    4.8911    8.3744 H         1 <0>         0.0785
     55 H26        -0.4789    3.1695    8.7578 H         1 <0>         0.0529
     56 O4         -1.9893    6.5057    7.2371 O.co2     1 <0>        -0.7551
@<TRIPOS>BOND
     1    1    2 1
     2    1   31 1
     3    1   32 1
     4    1   33 1
     5    2    7 ar
     6    2    3 ar
     7    3    4 ar
     8    3   34 1
     9    4    5 ar
    10    4   35 1
    11    5    6 ar
    12    5    8 1
    13    6    7 ar
    14    6   36 1
    15    7   37 1
    16    8    9 1
    17    8   38 1
    18    8   39 1
    19    9   15 1
    20    9   10 am
    21   10   11 2
    22   10   12 am
    23   12   13 1
    24   12   14 1
    25   14   15 2
    26   14   16 1
    27   16   17 1
    28   16   40 1
    29   16   41 1
    30   17   18 1
    31   17   42 1
    32   17   43 1
    33   18   19 1
    34   18   44 1
    35   18   45 1
    36   19   24 ar
    37   19   20 ar
    38   20   21 ar
    39   20   46 1
    40   21   22 ar
    41   21   47 1
    42   22   23 ar
    43   22   25 1
    44   23   24 ar
    45   23   48 1
    46   24   49 1
    47   25   26 1
    48   26   27 1
    49   26   28 1
    50   26   29 1
    51   27   50 1
    52   27   51 1
    53   27   52 1
    54   28   53 1
    55   28   54 1
    56   28   55 1
    57   29   30 2
    58   29   56 1
@<TRIPOS>MOLECULE
ZINC01725417
   30    31     0     0     0
SMALL
USER_CHARGES

@<TRIPOS>ATOM
      1 C1         -0.0167    1.3792    0.0096 C.ar      1 <0>        -0.0953
      2 C2          1.1683    2.0931    0.0021 C.ar      1 <0>        -0.1254
      3 C3          2.3774    1.4286   -0.0134 C.ar      1 <0>        -0.0840
      4 C4          2.4032    0.0335   -0.0212 C.ar      1 <0>        -0.1041
      5 C5          1.2045   -0.6806   -0.0131 C.ar      1 <0>        -0.0865
      6 C6          0.0021   -0.0041    0.0020 C.ar      1 <0>        -0.1261
      7 C7          3.6950   -0.6848   -0.0384 C.2       1 <0>         0.0750
      8 C8          3.7162   -2.0103   -0.0457 C.2       1 <0>        -0.7807
      9 S1          5.2560   -2.8666   -0.0662 S.o2      1 <0>         2.6682
     10 O1          5.1650   -3.8414   -1.0961 O.2       1 <0>        -0.9509
     11 O2          6.2729   -1.8742   -0.0443 O.2       1 <0>        -0.9353
     12 O3          5.3643   -3.6294    1.2464 O.3       1 <0>        -0.6585
     13 C9          4.5833   -4.7399    1.3063 C.ar      1 <0>         0.0618
     14 C10         3.2848   -4.6510    1.7866 C.ar      1 <0>        -0.1254
     15 C11         2.4927   -5.7813    1.8461 C.ar      1 <0>        -0.1033
     16 C12         2.9932   -7.0005    1.4279 C.ar      1 <0>        -0.0997
     17 C13         4.2872   -7.0917    0.9493 C.ar      1 <0>        -0.1006
     18 C14         5.0812   -5.9633    0.8820 C.ar      1 <0>        -0.0919
     19 H1         -0.9604    1.9041    0.0260 H         1 <0>         0.1286
     20 H2          1.1469    3.1729    0.0082 H         1 <0>         0.1309
     21 H3          3.3018    1.9870   -0.0200 H         1 <0>         0.1331
     22 H4          1.2178   -1.7605   -0.0194 H         1 <0>         0.1285
     23 H5         -0.9265   -0.5556    0.0079 H         1 <0>         0.1295
     24 H6          4.6214   -0.1298   -0.0450 H         1 <0>         0.1479
     25 H7          2.7898   -2.5653   -0.0392 H         1 <0>         0.1651
     26 H8          2.8936   -3.6991    2.1140 H         1 <0>         0.1403
     27 H9          1.4818   -5.7126    2.2199 H         1 <0>         0.1396
     28 H10         2.3725   -7.8830    1.4756 H         1 <0>         0.1367
     29 H11         4.6760   -8.0452    0.6236 H         1 <0>         0.1411
     30 H12         6.0904   -6.0343    0.5040 H         1 <0>         0.1414
@<TRIPOS>BOND
     1    1    6 ar
     2    1    2 ar
     3    1   19 1
     4    2    3 ar
     5    2   20 1
     6    3    4 ar
     7    3   21 1
     8    4    5 ar
     9    4    7 1
    10    5    6 ar
    11    5   22 1
    12    6   23 1
    13    7    8 2
    14    7   24 1
    15    8    9 1
    16    8   25 1
    17    9   10 2
    18    9   11 2
    19    9   12 1
    20   12   13 1
    21   13   18 ar
    22   13   14 ar
    23   14   15 ar
    24   14   26 1
    25   15   16 ar
    26   15   27 1
    27   16   17 ar
    28   16   28 1
    29   17   18 ar
    30   17   29 1
    31   18   30 1
@<TRIPOS>MOLECULE
ZINC03819473
   47    48     0     0     0
SMALL
USER_CHARGES
2-ethoxy-3-[4-(5-phenylpent-2-en-4-ynoxy)phenyl]-propanoic acid
@<TRIPOS>ATOM
      1 C1          8.9534  -11.8219    0.1386 C.3       1 <0>        -0.1439
      2 C2         10.0927  -10.9407   -0.3774 C.3       1 <0>         0.0638
      3 O1         10.7011  -10.2575    0.7204 O.3       1 <0>        -0.3680
      4 C3         11.7831   -9.4027    0.3454 C.3       1 <0>         0.0586
      5 H1         11.6145   -9.0241   -0.6627 H         1 <0>         0.0559
      6 C4         11.8686   -8.2292    1.3233 C.3       1 <0>        -0.0612
      7 C5         10.6291   -7.3810    1.1996 C.ar      1 <0>        -0.0963
      8 C6          9.5243   -7.6547    1.9845 C.ar      1 <0>        -0.0620
      9 C7          8.3869   -6.8786    1.8730 C.ar      1 <0>        -0.1504
     10 C8          8.3538   -5.8239    0.9724 C.ar      1 <0>         0.1111
     11 C9          9.4617   -5.5548    0.1819 C.ar      1 <0>        -0.2084
     12 C10        10.5985   -6.3306    0.3010 C.ar      1 <0>        -0.0808
     13 O2          7.2361   -5.0589    0.8609 O.3       1 <0>        -0.3145
     14 C11         7.2734   -3.9900   -0.0868 C.3       1 <0>         0.0882
     15 C12         5.9561   -3.2582   -0.0708 C.2       1 <0>        -0.1090
     16 C13         5.9341   -1.9262   -0.0638 C.2       1 <0>        -0.0491
     17 C14         4.6824   -1.2309   -0.0486 C.1       1 <0>        -0.1163
     18 C15         3.6562   -0.6608   -0.0361 C.1       1 <0>        -0.1291
     19 C16         2.4045    0.0346   -0.0208 C.ar      1 <0>         0.0155
     20 C17         1.2036   -0.6808   -0.0131 C.ar      1 <0>        -0.0954
     21 C18         0.0021   -0.0041    0.0020 C.ar      1 <0>        -0.1189
     22 C19        -0.0167    1.3797    0.0096 C.ar      1 <0>        -0.1117
     23 C20         1.1681    2.0948    0.0022 C.ar      1 <0>        -0.1195
     24 C21         2.3774    1.4322   -0.0130 C.ar      1 <0>        -0.0959
     25 C22        13.0733  -10.1808    0.3805 C.2       1 <0>         0.4447
     26 O3         13.0806  -11.3208    0.7806 O.co2     1 <0>        -0.6223
     27 H2          8.2097  -11.1997    0.6366 H         1 <0>         0.0558
     28 H3          8.4893  -12.3430   -0.6987 H         1 <0>         0.0609
     29 H4          9.3495  -12.5508    0.8457 H         1 <0>         0.0625
     30 H5          9.6966  -10.2117   -1.0844 H         1 <0>         0.0329
     31 H6         10.8364  -11.5628   -0.8753 H         1 <0>         0.0458
     32 H7         12.7463   -7.6260    1.0913 H         1 <0>         0.0912
     33 H8         11.9482   -8.6098    2.3416 H         1 <0>         0.0750
     34 H9          9.5504   -8.4762    2.6852 H         1 <0>         0.1315
     35 H10         7.5242   -7.0926    2.4866 H         1 <0>         0.1259
     36 H11         9.4368   -4.7370   -0.5231 H         1 <0>         0.1229
     37 H12        11.4628   -6.1188   -0.3110 H         1 <0>         0.1257
     38 H13         7.4525   -4.3940   -1.0832 H         1 <0>         0.0790
     39 H14         8.0756   -3.3001    0.1751 H         1 <0>         0.0723
     40 H15         5.0299   -3.8136   -0.0649 H         1 <0>         0.1257
     41 H16         6.8604   -1.3709   -0.0697 H         1 <0>         0.1400
     42 H17         1.2167   -1.7607   -0.0194 H         1 <0>         0.1275
     43 H18        -0.9266   -0.5554    0.0076 H         1 <0>         0.1284
     44 H19        -0.9608    1.9041    0.0169 H         1 <0>         0.1257
     45 H20         1.1455    3.1746    0.0078 H         1 <0>         0.1281
     46 H21         3.3012    1.9916   -0.0193 H         1 <0>         0.1272
     47 O4         14.2143   -9.6072   -0.0328 O.co2     1 <0>        -0.7689
@<TRIPOS>BOND
     1    1    2 1
     2    1   27 1
     3    1   28 1
     4    1   29 1
     5    2    3 1
     6    2   30 1
     7    2   31 1
     8    3    4 1
     9    4    5 1
    10    4    6 1
    11    4   25 1
    12    6    7 1
    13    6   32 1
    14    6   33 1
    15    7   12 ar
    16    7    8 ar
    17    8    9 ar
    18    8   34 1
    19    9   10 ar
    20    9   35 1
    21   10   11 ar
    22   10   13 1
    23   11   12 ar
    24   11   36 1
    25   12   37 1
    26   13   14 1
    27   14   15 1
    28   14   38 1
    29   14   39 1
    30   15   16 2
    31   15   40 1
    32   16   17 1
    33   16   41 1
    34   17   18 3
    35   18   19 1
    36   19   24 ar
    37   19   20 ar
    38   20   21 ar
    39   20   42 1
    40   21   22 ar
    41   21   43 1
    42   22   23 ar
    43   22   44 1
    44   23   24 ar
    45   23   45 1
    46   24   46 1
    47   25   26 2
    48   25   47 1
@<TRIPOS>MOLECULE
ZINC01882025
   30    31     0     0     0
SMALL
USER_CHARGES
1,3,5-trichloro-2-styrylsulfonyloxy-benzene
@<TRIPOS>ATOM
      1 C1          6.1678    4.0444   -1.0755 C.ar      1 <0>        -0.0948
      2 C2          5.3460    4.3196   -2.1538 C.ar      1 <0>        -0.1252
      3 C3          4.0327    3.8966   -2.1498 C.ar      1 <0>        -0.0837
      4 C4          3.5341    3.1895   -1.0551 C.ar      1 <0>        -0.1016
      5 C5          4.3667    2.9197    0.0316 C.ar      1 <0>        -0.0855
      6 C6          5.6797    3.3433    0.0127 C.ar      1 <0>        -0.1260
      7 C7          2.1282    2.7333   -1.0441 C.2       1 <0>         0.0768
      8 C8          1.6574    2.0616   -0.0027 C.2       1 <0>        -0.7793
      9 S1         -0.0186    1.5178    0.0104 S.o2      1 <0>         2.6542
     10 O1         -0.5867    1.9230   -1.2274 O.2       1 <0>        -0.9217
     11 O2         -0.5629    1.9097    1.2631 O.2       1 <0>        -0.9392
     12 O3          0.0021   -0.0041    0.0020 O.3       1 <0>        -0.6457
     13 C9          0.3425   -0.5591    1.1957 C.ar      1 <0>         0.0888
     14 C10         1.6731   -0.8306    1.4816 C.ar      1 <0>        -0.0289
     15 C11         2.0175   -1.3893    2.6986 C.ar      1 <0>        -0.0825
     16 C12         1.0355   -1.6891    3.6260 C.ar      1 <0>         0.0006
     17 C13        -0.2922   -1.4246    3.3408 C.ar      1 <0>        -0.0804
     18 C14        -0.6407   -0.8603    2.1277 C.ar      1 <0>         0.0056
     19 Cl1        -2.3069   -0.5282    1.7708 Cl        1 <0>        -0.0056
     20 Cl2         1.4702   -2.3977    5.1500 Cl        1 <0>        -0.0207
     21 Cl3         2.9049   -0.4618    0.3153 Cl        1 <0>        -0.0080
     22 H1          7.1949    4.3780   -1.0834 H         1 <0>         0.1284
     23 H2          5.7331    4.8671   -3.0005 H         1 <0>         0.1307
     24 H3          3.3921    4.1121   -2.9922 H         1 <0>         0.1330
     25 H4          3.9855    2.3767    0.8838 H         1 <0>         0.1271
     26 H5          6.3264    3.1313    0.8512 H         1 <0>         0.1293
     27 H6          1.4845    2.9471   -1.8846 H         1 <0>         0.1479
     28 H7          2.3011    1.8477    0.8377 H         1 <0>         0.1671
     29 H8          3.0534   -1.5963    2.9234 H         1 <0>         0.1689
     30 H9         -1.0571   -1.6595    4.0663 H         1 <0>         0.1700
@<TRIPOS>BOND
     1    1    6 ar
     2    1    2 ar
     3    1   22 1
     4    2    3 ar
     5    2   23 1
     6    3    4 ar
     7    3   24 1
     8    4    5 ar
     9    4    7 1
    10    5    6 ar
    11    5   25 1
    12    6   26 1
    13    7    8 2
    14    7   27 1
    15    8    9 1
    16    8   28 1
    17    9   10 2
    18    9   11 2
    19    9   12 1
    20   12   13 1
    21   13   18 ar
    22   13   14 ar
    23   14   15 ar
    24   14   21 1
    25   15   16 ar
    26   15   29 1
    27   16   17 ar
    28   16   20 1
    29   17   18 ar
    30   17   30 1
    31   18   19 1
@<TRIPOS>MOLECULE
ZINC04744962
   33    34     0     0     0
SMALL
USER_CHARGES
1-methyl-3-styrylsulfonyloxy-benzene
@<TRIPOS>ATOM
      1 C1         -5.6133   -0.2174    2.4729 C.3       1 <0>        -0.1184
      2 C2         -4.9988   -1.4892    1.9475 C.ar      1 <0>        -0.0691
      3 C3         -5.8109   -2.5307    1.5373 C.ar      1 <0>        -0.1010
      4 C4         -5.2503   -3.6988    1.0553 C.ar      1 <0>        -0.0958
      5 C5         -3.8767   -3.8282    0.9817 C.ar      1 <0>        -0.0976
      6 C6         -3.0600   -2.7848    1.3920 C.ar      1 <0>         0.0667
      7 C7         -3.6250   -1.6156    1.8808 C.ar      1 <0>        -0.1271
      8 O1         -1.7086   -2.9097    1.3206 O.3       1 <0>        -0.6584
      9 S1         -1.1129   -2.4443   -0.0004 S.o2      1 <0>         2.6682
     10 O2         -2.0130   -2.8570   -1.0197 O.2       1 <0>        -0.9505
     11 O3          0.2541   -2.8320    0.0115 O.2       1 <0>        -0.9354
     12 C8         -1.1368   -0.6825    0.0092 C.2       1 <0>        -0.7803
     13 C9          0.0021   -0.0041    0.0020 C.2       1 <0>         0.0747
     14 C10        -0.0180    1.4739    0.0101 C.ar      1 <0>        -0.1037
     15 C11        -1.2340    2.1581    0.0196 C.ar      1 <0>        -0.0865
     16 C12        -1.2459    3.5377    0.0315 C.ar      1 <0>        -0.1260
     17 C13        -0.0555    4.2427    0.0240 C.ar      1 <0>        -0.0953
     18 C14         1.1535    3.5704    0.0097 C.ar      1 <0>        -0.1253
     19 C15         1.1791    2.1909    0.0026 C.ar      1 <0>        -0.0840
     20 H1         -5.7468   -0.2972    3.5518 H         1 <0>         0.0781
     21 H2         -4.9562    0.6230    2.2493 H         1 <0>         0.0702
     22 H3         -6.5813   -0.0583    1.9978 H         1 <0>         0.0746
     23 H4         -6.8848   -2.4315    1.5941 H         1 <0>         0.1363
     24 H5         -5.8867   -4.5111    0.7362 H         1 <0>         0.1416
     25 H6         -3.4393   -4.7411    0.6053 H         1 <0>         0.1411
     26 H7         -2.9912   -0.8037    2.2054 H         1 <0>         0.1399
     27 H8         -2.0793   -0.1552    0.0211 H         1 <0>         0.1650
     28 H9          0.9446   -0.5313   -0.0098 H         1 <0>         0.1479
     29 H10        -2.1640    1.6089    0.0210 H         1 <0>         0.1283
     30 H11        -2.1864    4.0684    0.0423 H         1 <0>         0.1294
     31 H12        -0.0702    5.3226    0.0295 H         1 <0>         0.1286
     32 H13         2.0793    4.1265    0.0039 H         1 <0>         0.1309
     33 H14         2.1235    1.6672   -0.0085 H         1 <0>         0.1330
@<TRIPOS>BOND
     1    1    2 1
     2    1   20 1
     3    1   21 1
     4    1   22 1
     5    2    7 ar
     6    2    3 ar
     7    3    4 ar
     8    3   23 1
     9    4    5 ar
    10    4   24 1
    11    5    6 ar
    12    5   25 1
    13    6    7 ar
    14    6    8 1
    15    7   26 1
    16    8    9 1
    17    9   10 2
    18    9   11 2
    19    9   12 1
    20   12   13 2
    21   12   27 1
    22   13   14 1
    23   13   28 1
    24   14   19 ar
    25   14   15 ar
    26   15   16 ar
    27   15   29 1
    28   16   17 ar
    29   16   30 1
    30   17   18 ar
    31   17   31 1
    32   18   19 ar
    33   18   32 1
    34   19   33 1
@<TRIPOS>MOLECULE
ZINC04661798
   36    38     0     0     0
SMALL
USER_CHARGES
2-styrylsulfonyloxynaphthalene
@<TRIPOS>ATOM
      1 C1          0.0396   -2.7728   -0.0142 C.ar      1 <0>        -0.0955
      2 C2         -1.1694   -2.1005    0.0015 C.ar      1 <0>        -0.1254
      3 C3         -1.1949   -0.7211    0.0096 C.ar      1 <0>        -0.0842
      4 C4          0.0021   -0.0041    0.0020 C.ar      1 <0>        -0.1037
      5 C5          1.2180   -0.6882   -0.0191 C.ar      1 <0>        -0.0865
      6 C6          1.2299   -2.0679   -0.0218 C.ar      1 <0>        -0.1261
      7 C7         -0.0180    1.4739    0.0101 C.2       1 <0>         0.0744
      8 C8          1.1209    2.1523    0.0029 C.2       1 <0>        -0.7795
      9 S1          1.0970    3.9141    0.0126 S.o2      1 <0>         2.6663
     10 O1          1.9775    4.3379   -1.0191 O.2       1 <0>        -0.9507
     11 O2         -0.2695    4.3015    0.0548 O.2       1 <0>        -0.9353
     12 O3          1.7179    4.3653    1.3269 O.3       1 <0>        -0.6580
     13 C9          3.0702    4.2399    1.3712 C.ar      1 <0>         0.0625
     14 C10         3.6380    3.0518    1.8420 C.ar      1 <0>        -0.1324
     15 C11         4.9878    2.8942    1.8927 C.ar      1 <0>        -0.0794
     16 C12         5.8282    3.9421    1.4779 C.ar      1 <0>        -0.0441
     17 C13         7.2269    3.8155    1.5234 C.ar      1 <0>        -0.1070
     18 C14         8.0108    4.8501    1.1141 C.ar      1 <0>        -0.1032
     19 C15         7.4474    6.0374    0.6499 C.ar      1 <0>        -0.1101
     20 C16         6.0971    6.1964    0.5921 C.ar      1 <0>        -0.0965
     21 C17         5.2550    5.1495    1.0058 C.ar      1 <0>        -0.0439
     22 C18         3.8571    5.2779    0.9605 C.ar      1 <0>        -0.0646
     23 H1          0.0543   -3.8527   -0.0201 H         1 <0>         0.1285
     24 H2         -2.0952   -2.6567    0.0070 H         1 <0>         0.1308
     25 H3         -2.1394   -0.1974    0.0222 H         1 <0>         0.1330
     26 H4          2.1479   -0.1389   -0.0292 H         1 <0>         0.1287
     27 H5          2.1705   -2.5986   -0.0340 H         1 <0>         0.1294
     28 H6         -0.9605    2.0011    0.0175 H         1 <0>         0.1477
     29 H7          2.0634    1.6251   -0.0089 H         1 <0>         0.1655
     30 H8          2.9954    2.2464    2.1659 H         1 <0>         0.1413
     31 H9          5.4124    1.9694    2.2544 H         1 <0>         0.1441
     32 H10         7.6778    2.9017    1.8813 H         1 <0>         0.1334
     33 H11         9.0855    4.7497    1.1499 H         1 <0>         0.1291
     34 H12         8.0921    6.8434    0.3318 H         1 <0>         0.1300
     35 H13         5.6745    7.1222    0.2304 H         1 <0>         0.1349
     36 H14         3.4070    6.1923    0.6033 H         1 <0>         0.1464
@<TRIPOS>BOND
     1    1    6 ar
     2    1    2 ar
     3    1   23 1
     4    2    3 ar
     5    2   24 1
     6    3    4 ar
     7    3   25 1
     8    4    5 ar
     9    4    7 1
    10    5    6 ar
    11    5   26 1
    12    6   27 1
    13    7    8 2
    14    7   28 1
    15    8    9 1
    16    8   29 1
    17    9   10 2
    18    9   11 2
    19    9   12 1
    20   12   13 1
    21   13   22 ar
    22   13   14 ar
    23   14   15 ar
    24   14   30 1
    25   15   16 ar
    26   15   31 1
    27   16   21 ar
    28   16   17 ar
    29   17   18 ar
    30   17   32 1
    31   18   19 ar
    32   18   33 1
    33   19   20 ar
    34   19   34 1
    35   20   21 ar
    36   20   35 1
    37   21   22 ar
    38   22   36 1
@<TRIPOS>MOLECULE
ZINC04745003
   33    34     0     0     0
SMALL
USER_CHARGES
1-methyl-4-styrylsulfonyloxy-benzene
@<TRIPOS>ATOM
      1 C1          7.3233    3.8454    1.5103 C.3       1 <0>        -0.1211
      2 C2          5.8235    3.9845    1.4612 C.ar      1 <0>        -0.0646
      3 C3          5.2539    5.1579    1.0025 C.ar      1 <0>        -0.1032
      4 C4          3.8793    5.2879    0.9565 C.ar      1 <0>        -0.0859
      5 C5          3.0704    4.2399    1.3712 C.ar      1 <0>         0.0542
      6 C6          3.6444    3.0657    1.8365 C.ar      1 <0>        -0.1188
      7 C7          5.0195    2.9384    1.8747 C.ar      1 <0>        -0.1057
      8 O1          1.7179    4.3653    1.3269 O.3       1 <0>        -0.6577
      9 S1          1.0970    3.9141    0.0126 S.o2      1 <0>         2.6679
     10 O2          1.9775    4.3379   -1.0191 O.2       1 <0>        -0.9512
     11 O3         -0.2695    4.3015    0.0548 O.2       1 <0>        -0.9360
     12 C8          1.1209    2.1523    0.0029 C.2       1 <0>        -0.7802
     13 C9         -0.0180    1.4739    0.0101 C.2       1 <0>         0.0744
     14 C10         0.0021   -0.0041    0.0020 C.ar      1 <0>        -0.1038
     15 C11         1.2180   -0.6882   -0.0191 C.ar      1 <0>        -0.0866
     16 C12         1.2299   -2.0679   -0.0218 C.ar      1 <0>        -0.1261
     17 C13         0.0396   -2.7728   -0.0142 C.ar      1 <0>        -0.0955
     18 C14        -1.1694   -2.1005    0.0015 C.ar      1 <0>        -0.1254
     19 C15        -1.1949   -0.7211    0.0096 C.ar      1 <0>        -0.0842
     20 H1          7.6884    4.1876    2.4786 H         1 <0>         0.0784
     21 H2          7.5960    2.7997    1.3680 H         1 <0>         0.0723
     22 H3          7.7702    4.4483    0.7198 H         1 <0>         0.0734
     23 H4          5.8841    5.9736    0.6801 H         1 <0>         0.1407
     24 H5          3.4349    6.2045    0.5977 H         1 <0>         0.1416
     25 H6          3.0168    2.2502    2.1641 H         1 <0>         0.1406
     26 H7          5.4668    2.0227    2.2320 H         1 <0>         0.1392
     27 H8          2.0634    1.6251   -0.0089 H         1 <0>         0.1650
     28 H9         -0.9605    2.0011    0.0175 H         1 <0>         0.1478
     29 H10         2.1479   -0.1389   -0.0292 H         1 <0>         0.1285
     30 H11         2.1705   -2.5986   -0.0340 H         1 <0>         0.1294
     31 H12         0.0543   -3.8527   -0.0201 H         1 <0>         0.1285
     32 H13        -2.0952   -2.6567    0.0070 H         1 <0>         0.1308
     33 H14        -2.1394   -0.1974    0.0222 H         1 <0>         0.1330
@<TRIPOS>BOND
     1    1    2 1
     2    1   20 1
     3    1   21 1
     4    1   22 1
     5    2    7 ar
     6    2    3 ar
     7    3    4 ar
     8    3   23 1
     9    4    5 ar
    10    4   24 1
    11    5    6 ar
    12    5    8 1
    13    6    7 ar
    14    6   25 1
    15    7   26 1
    16    8    9 1
    17    9   10 2
    18    9   11 2
    19    9   12 1
    20   12   13 2
    21   12   27 1
    22   13   14 1
    23   13   28 1
    24   14   19 ar
    25   14   15 ar
    26   15   16 ar
    27   15   29 1
    28   16   17 ar
    29   16   30 1
    30   17   18 ar
    31   17   31 1
    32   18   19 ar
    33   18   32 1
    34   19   33 1
@<TRIPOS>MOLECULE
ZINC04662097
   30    31     0     0     0
SMALL
USER_CHARGES
1-chloro-4-styrylsulfonyloxy-benzene
@<TRIPOS>ATOM
      1 C1          0.0396   -2.7728   -0.0142 C.ar      1 <0>        -0.0944
      2 C2         -1.1694   -2.1005    0.0015 C.ar      1 <0>        -0.1254
      3 C3         -1.1949   -0.7211    0.0096 C.ar      1 <0>        -0.0834
      4 C4          0.0021   -0.0041    0.0020 C.ar      1 <0>        -0.1054
      5 C5          1.2180   -0.6882   -0.0191 C.ar      1 <0>        -0.0860
      6 C6          1.2299   -2.0679   -0.0218 C.ar      1 <0>        -0.1261
      7 C7         -0.0180    1.4739    0.0101 C.2       1 <0>         0.0785
      8 C8          1.1209    2.1523    0.0029 C.2       1 <0>        -0.7836
      9 S1          1.0970    3.9141    0.0126 S.o2      1 <0>         2.6674
     10 O1          1.9775    4.3379   -1.0191 O.2       1 <0>        -0.9492
     11 O2         -0.2695    4.3015    0.0548 O.2       1 <0>        -0.9320
     12 O3          1.7179    4.3653    1.3269 O.3       1 <0>        -0.6571
     13 C9          3.0706    4.2399    1.3712 C.ar      1 <0>         0.0680
     14 C10         3.6443    3.0657    1.8366 C.ar      1 <0>        -0.1116
     15 C11         5.0193    2.9383    1.8763 C.ar      1 <0>        -0.0937
     16 C12         5.8242    3.9848    1.4623 C.ar      1 <0>        -0.0203
     17 C13         5.2538    5.1587    1.0027 C.ar      1 <0>        -0.0909
     18 C14         3.8792    5.2880    0.9565 C.ar      1 <0>        -0.0786
     19 Cl1         7.5518    3.8246    1.5188 Cl        1 <0>        -0.0491
     20 H1          0.0543   -3.8527   -0.0201 H         1 <0>         0.1288
     21 H2         -2.0952   -2.6567    0.0070 H         1 <0>         0.1311
     22 H3         -2.1394   -0.1974    0.0222 H         1 <0>         0.1332
     23 H4          2.1479   -0.1389   -0.0292 H         1 <0>         0.1287
     24 H5          2.1705   -2.5986   -0.0340 H         1 <0>         0.1298
     25 H6         -0.9605    2.0011    0.0175 H         1 <0>         0.1482
     26 H7          2.0634    1.6251   -0.0089 H         1 <0>         0.1656
     27 H8          3.0164    2.2502    2.1637 H         1 <0>         0.1512
     28 H9          5.4663    2.0228    2.2347 H         1 <0>         0.1513
     29 H10         5.8837    5.9744    0.6796 H         1 <0>         0.1527
     30 H11         3.4344    6.2043    0.5974 H         1 <0>         0.1523
@<TRIPOS>BOND
     1    1    6 ar
     2    1    2 ar
     3    1   20 1
     4    2    3 ar
     5    2   21 1
     6    3    4 ar
     7    3   22 1
     8    4    5 ar
     9    4    7 1
    10    5    6 ar
    11    5   23 1
    12    6   24 1
    13    7    8 2
    14    7   25 1
    15    8    9 1
    16    8   26 1
    17    9   10 2
    18    9   11 2
    19    9   12 1
    20   12   13 1
    21   13   18 ar
    22   13   14 ar
    23   14   15 ar
    24   14   27 1
    25   15   16 ar
    26   15   28 1
    27   16   17 ar
    28   16   19 1
    29   17   18 ar
    30   17   29 1
    31   18   30 1
@<TRIPOS>MOLECULE
ZINC02027112
   34    35     0     0     0
SMALL
USER_CHARGES
1-methoxy-4-styrylsulfonyloxy-benzene
@<TRIPOS>ATOM
      1 C1          7.7006    2.6203    1.9922 C.3       1 <0>         0.0220
      2 O1          7.1795    3.8591    1.5065 O.3       1 <0>        -0.3087
      3 C2          5.8262    3.9846    1.4622 C.ar      1 <0>         0.1502
      4 C3          5.2535    5.1608    1.0013 C.ar      1 <0>        -0.1334
      5 C4          3.8789    5.2883    0.9564 C.ar      1 <0>        -0.0493
      6 C5          3.0712    4.2398    1.3712 C.ar      1 <0>         0.0217
      7 C6          3.6439    3.0654    1.8366 C.ar      1 <0>        -0.0800
      8 C7          5.0185    2.9363    1.8775 C.ar      1 <0>        -0.1947
      9 O2          1.7179    4.3653    1.3269 O.3       1 <0>        -0.6537
     10 S1          1.0970    3.9141    0.0126 S.o2      1 <0>         2.6662
     11 O3          1.9775    4.3379   -1.0191 O.2       1 <0>        -0.9514
     12 O4         -0.2695    4.3015    0.0548 O.2       1 <0>        -0.9366
     13 C8          1.1209    2.1523    0.0029 C.2       1 <0>        -0.7803
     14 C9         -0.0180    1.4739    0.0101 C.2       1 <0>         0.0739
     15 C10         0.0021   -0.0041    0.0020 C.ar      1 <0>        -0.1034
     16 C11         1.2180   -0.6882   -0.0191 C.ar      1 <0>        -0.0870
     17 C12         1.2299   -2.0679   -0.0218 C.ar      1 <0>        -0.1263
     18 C13         0.0396   -2.7728   -0.0142 C.ar      1 <0>        -0.0957
     19 C14        -1.1694   -2.1005    0.0015 C.ar      1 <0>        -0.1252
     20 C15        -1.1949   -0.7211    0.0096 C.ar      1 <0>        -0.0842
     21 H1          7.3515    1.8056    1.3578 H         1 <0>         0.0599
     22 H2          8.7900    2.6527    1.9752 H         1 <0>         0.1060
     23 H3          7.3578    2.4576    3.0140 H         1 <0>         0.0601
     24 H4          5.8824    5.9770    0.6779 H         1 <0>         0.1500
     25 H5          3.4330    6.2043    0.5978 H         1 <0>         0.1494
     26 H6          3.0150    2.2507    2.1638 H         1 <0>         0.1438
     27 H7          5.4644    2.0203    2.2360 H         1 <0>         0.1448
     28 H8          2.0634    1.6251   -0.0089 H         1 <0>         0.1642
     29 H9         -0.9605    2.0011    0.0175 H         1 <0>         0.1479
     30 H10         2.1479   -0.1389   -0.0292 H         1 <0>         0.1281
     31 H11         2.1705   -2.5986   -0.0340 H         1 <0>         0.1291
     32 H12         0.0543   -3.8527   -0.0201 H         1 <0>         0.1284
     33 H13        -2.0952   -2.6567    0.0070 H         1 <0>         0.1309
     34 H14        -2.1394   -0.1974    0.0222 H         1 <0>         0.1332
@<TRIPOS>BOND
     1    1    2 1
     2    1   21 1
     3    1   22 1
     4    1   23 1
     5    2    3 1
     6    3    8 ar
     7    3    4 ar
     8    4    5 ar
     9    4   24 1
    10    5    6 ar
    11    5   25 1
    12    6    7 ar
    13    6    9 1
    14    7    8 ar
    15    7   26 1
    16    8   27 1
    17    9   10 1
    18   10   11 2
    19   10   12 2
    20   10   13 1
    21   13   14 2
    22   13   28 1
    23   14   15 1
    24   14   29 1
    25   15   20 ar
    26   15   16 ar
    27   16   17 ar
    28   16   30 1
    29   17   18 ar
    30   17   31 1
    31   18   19 ar
    32   18   32 1
    33   19   20 ar
    34   19   33 1
    35   20   34 1
@<TRIPOS>MOLECULE
ZINC03122867
   44    46     0     0     0
SMALL
USER_CHARGES
1-benzyloxy-4-styrylsulfonyloxy-benzene
@<TRIPOS>ATOM
      1 C1         11.9699    2.7455    1.9217 C.ar      1 <0>        -0.1068
      2 C2         11.2841    3.1635    3.0468 C.ar      1 <0>        -0.1228
      3 C3          9.9025    3.1231    3.0690 C.ar      1 <0>        -0.0943
      4 C4          9.2067    2.6642    1.9662 C.ar      1 <0>        -0.1019
      5 C5          9.8926    2.2408    0.8432 C.ar      1 <0>        -0.0942
      6 C6         11.2740    2.2866    0.8189 C.ar      1 <0>        -0.1226
      7 C7          7.7006    2.6196    1.9905 C.3       1 <0>         0.0986
      8 O1          7.1795    3.8586    1.5052 O.3       1 <0>        -0.3003
      9 C8          5.8262    3.9844    1.4618 C.ar      1 <0>         0.1535
     10 C9          5.2535    5.1608    1.0013 C.ar      1 <0>        -0.1328
     11 C10         3.8789    5.2883    0.9564 C.ar      1 <0>        -0.0486
     12 C11         3.0712    4.2398    1.3712 C.ar      1 <0>         0.0215
     13 C12         3.6439    3.0654    1.8366 C.ar      1 <0>        -0.0791
     14 C13         5.0185    2.9363    1.8775 C.ar      1 <0>        -0.1961
     15 O2          1.7179    4.3653    1.3269 O.3       1 <0>        -0.6537
     16 S1          1.0970    3.9141    0.0126 S.o2      1 <0>         2.6659
     17 O3          1.9775    4.3379   -1.0191 O.2       1 <0>        -0.9512
     18 O4         -0.2695    4.3015    0.0548 O.2       1 <0>        -0.9368
     19 C14         1.1209    2.1523    0.0029 C.2       1 <0>        -0.7803
     20 C15        -0.0180    1.4739    0.0101 C.2       1 <0>         0.0739
     21 C16         0.0021   -0.0041    0.0020 C.ar      1 <0>        -0.1033
     22 C17         1.2180   -0.6882   -0.0191 C.ar      1 <0>        -0.0870
     23 C18         1.2299   -2.0679   -0.0218 C.ar      1 <0>        -0.1263
     24 C19         0.0396   -2.7728   -0.0142 C.ar      1 <0>        -0.0957
     25 C20        -1.1694   -2.1005    0.0015 C.ar      1 <0>        -0.1252
     26 C21        -1.1949   -0.7211    0.0096 C.ar      1 <0>        -0.0842
     27 H1         13.0492    2.7778    1.9041 H         1 <0>         0.1256
     28 H2         11.8277    3.5220    3.9084 H         1 <0>         0.1266
     29 H3          9.3668    3.4496    3.9480 H         1 <0>         0.1249
     30 H4          9.3492    1.8781   -0.0168 H         1 <0>         0.1250
     31 H5         11.8098    1.9604   -0.0603 H         1 <0>         0.1267
     32 H6          7.3584    2.4570    3.0125 H         1 <0>         0.0761
     33 H7          7.3509    1.8050    1.3563 H         1 <0>         0.0759
     34 H8          5.8824    5.9769    0.6776 H         1 <0>         0.1496
     35 H9          3.4330    6.2043    0.5978 H         1 <0>         0.1493
     36 H10         3.0150    2.2507    2.1638 H         1 <0>         0.1440
     37 H11         5.4644    2.0202    2.2357 H         1 <0>         0.1442
     38 H12         2.0634    1.6251   -0.0089 H         1 <0>         0.1643
     39 H13        -0.9605    2.0011    0.0175 H         1 <0>         0.1478
     40 H14         2.1479   -0.1389   -0.0292 H         1 <0>         0.1282
     41 H15         2.1705   -2.5986   -0.0340 H         1 <0>         0.1291
     42 H16         0.0543   -3.8527   -0.0201 H         1 <0>         0.1284
     43 H17        -2.0952   -2.6567    0.0070 H         1 <0>         0.1308
     44 H18        -2.1394   -0.1974    0.0222 H         1 <0>         0.1331
@<TRIPOS>BOND
     1    1    6 ar
     2    1    2 ar
     3    1   27 1
     4    2    3 ar
     5    2   28 1
     6    3    4 ar
     7    3   29 1
     8    4    5 ar
     9    4    7 1
    10    5    6 ar
    11    5   30 1
    12    6   31 1
    13    7    8 1
    14    7   32 1
    15    7   33 1
    16    8    9 1
    17    9   14 ar
    18    9   10 ar
    19   10   11 ar
    20   10   34 1
    21   11   12 ar
    22   11   35 1
    23   12   13 ar
    24   12   15 1
    25   13   14 ar
    26   13   36 1
    27   14   37 1
    28   15   16 1
    29   16   17 2
    30   16   18 2
    31   16   19 1
    32   19   20 2
    33   19   38 1
    34   20   21 1
    35   20   39 1
    36   21   26 ar
    37   21   22 ar
    38   22   23 ar
    39   22   40 1
    40   23   24 ar
    41   23   41 1
    42   24   25 ar
    43   24   42 1
    44   25   26 ar
    45   25   43 1
    46   26   44 1
@<TRIPOS>MOLECULE
ZINC02027132
   39    40     0     0     0
SMALL
USER_CHARGES
ethyl 4-styrylsulfonyloxybenzoate
@<TRIPOS>ATOM
      1 C1          9.7439    1.2785    2.5105 C.3       1 <0>        -0.1541
      2 C2          9.3003    2.6417    1.9759 C.3       1 <0>         0.0629
      3 O1          7.8498    2.7054    1.9568 O.3       1 <0>        -0.3531
      4 C3          7.2935    3.8482    1.5094 C.2       1 <0>         0.5099
      5 O2          8.0010    4.7664    1.1453 O.2       1 <0>        -0.4957
      6 C4          5.8259    3.9845    1.4618 C.ar      1 <0>        -0.1101
      7 C5          5.2466    5.1692    0.9981 C.ar      1 <0>        -0.0341
      8 C6          3.8760    5.2922    0.9548 C.ar      1 <0>        -0.1027
      9 C7          3.0684    4.2401    1.3711 C.ar      1 <0>         0.1004
     10 C8          3.6403    3.0622    1.8380 C.ar      1 <0>        -0.1381
     11 C9          5.0100    2.9291    1.8799 C.ar      1 <0>        -0.0443
     12 O3          1.7179    4.3653    1.3269 O.3       1 <0>        -0.6588
     13 S1          1.0970    3.9141    0.0126 S.o2      1 <0>         2.6672
     14 O4          1.9775    4.3379   -1.0191 O.2       1 <0>        -0.9472
     15 O5         -0.2695    4.3015    0.0548 O.2       1 <0>        -0.9298
     16 C10         1.1209    2.1523    0.0029 C.2       1 <0>        -0.7843
     17 C11        -0.0180    1.4739    0.0101 C.2       1 <0>         0.0797
     18 C12         0.0021   -0.0041    0.0020 C.ar      1 <0>        -0.1057
     19 C13         1.2180   -0.6882   -0.0191 C.ar      1 <0>        -0.0856
     20 C14         1.2299   -2.0679   -0.0218 C.ar      1 <0>        -0.1262
     21 C15         0.0396   -2.7728   -0.0142 C.ar      1 <0>        -0.0942
     22 C16        -1.1694   -2.1005    0.0015 C.ar      1 <0>        -0.1255
     23 C17        -1.1949   -0.7211    0.0096 C.ar      1 <0>        -0.0831
     24 H1          9.3610    1.1427    3.5219 H         1 <0>         0.0680
     25 H2          9.3542    0.4910    1.8655 H         1 <0>         0.0679
     26 H3         10.8328    1.2307    2.5248 H         1 <0>         0.0830
     27 H4          9.6833    2.7776    0.9645 H         1 <0>         0.0738
     28 H5          9.6901    3.4293    2.6208 H         1 <0>         0.0737
     29 H6          5.8734    5.9868    0.6738 H         1 <0>         0.1571
     30 H7          3.4277    6.2071    0.5967 H         1 <0>         0.1540
     31 H8          3.0092    2.2489    2.1646 H         1 <0>         0.1518
     32 H9          5.4535    2.0120    2.2386 H         1 <0>         0.1563
     33 H10         2.0634    1.6251   -0.0089 H         1 <0>         0.1665
     34 H11        -0.9605    2.0011    0.0175 H         1 <0>         0.1483
     35 H12         2.1479   -0.1389   -0.0292 H         1 <0>         0.1290
     36 H13         2.1705   -2.5986   -0.0340 H         1 <0>         0.1299
     37 H14         0.0543   -3.8527   -0.0201 H         1 <0>         0.1288
     38 H15        -2.0952   -2.6567    0.0070 H         1 <0>         0.1310
     39 H16        -2.1394   -0.1974    0.0222 H         1 <0>         0.1332
@<TRIPOS>BOND
     1    1    2 1
     2    1   24 1
     3    1   25 1
     4    1   26 1
     5    2    3 1
     6    2   27 1
     7    2   28 1
     8    3    4 1
     9    4    5 2
    10    4    6 1
    11    6   11 ar
    12    6    7 ar
    13    7    8 ar
    14    7   29 1
    15    8    9 ar
    16    8   30 1
    17    9   10 ar
    18    9   12 1
    19   10   11 ar
    20   10   31 1
    21   11   32 1
    22   12   13 1
    23   13   14 2
    24   13   15 2
    25   13   16 1
    26   16   17 2
    27   16   33 1
    28   17   18 1
    29   17   34 1
    30   18   23 ar
    31   18   19 ar
    32   19   20 ar
    33   19   35 1
    34   20   21 ar
    35   20   36 1
    36   21   22 ar
    37   21   37 1
    38   22   23 ar
    39   22   38 1
    40   23   39 1
@<TRIPOS>MOLECULE
ZINC01884638
   32    33     0     0     0
SMALL
USER_CHARGES
4-styrylsulfonyloxybenzaldehyde
@<TRIPOS>ATOM
      1 C1         -8.9021   -1.1440   -3.8256 C.ar      1 <0>        -0.0942
      2 C2         -9.7611   -0.0928   -3.5591 C.ar      1 <0>        -0.1253
      3 C3         -9.2705    1.0891   -3.0433 C.ar      1 <0>        -0.0831
      4 C4         -7.9049    1.2227   -2.7901 C.ar      1 <0>        -0.1055
      5 C5         -7.0431    0.1605   -3.0661 C.ar      1 <0>        -0.0859
      6 C6         -7.5471   -1.0182   -3.5764 C.ar      1 <0>        -0.1262
      7 C7         -7.3725    2.4860   -2.2376 C.2       1 <0>         0.0791
      8 C8         -6.0745    2.6099   -1.9981 C.2       1 <0>        -0.7836
      9 S1         -5.4399    4.1159   -1.3394 S.o2      1 <0>         2.6675
     10 O1         -6.5535    4.9786   -1.1527 O.2       1 <0>        -0.9307
     11 O2         -4.3256    4.4739   -2.1452 O.2       1 <0>        -0.9481
     12 O3         -4.8928    3.8057    0.0465 O.3       1 <0>        -0.6594
     13 C9         -3.7088    3.1434    0.0368 C.ar      1 <0>         0.0964
     14 C10        -2.5153    3.8575    0.0350 C.ar      1 <0>        -0.1049
     15 C11        -1.3160    3.1929    0.0256 C.ar      1 <0>        -0.0417
     16 C12        -1.2942    1.7927    0.0179 C.ar      1 <0>        -0.1758
     17 C13        -2.4988    1.0786    0.0140 C.ar      1 <0>        -0.0518
     18 C14        -3.6927    1.7527    0.0292 C.ar      1 <0>        -0.1393
     19 C15        -0.0126    1.0758    0.0080 C.2       1 <0>         0.3811
     20 O4          1.0295    1.6965    0.0013 O.2       1 <0>        -0.4481
     21 H1         -9.2910   -2.0670   -4.2296 H         1 <0>         0.1289
     22 H2        -10.8179   -0.1975   -3.7555 H         1 <0>         0.1312
     23 H3         -9.9421    1.9090   -2.8357 H         1 <0>         0.1332
     24 H4         -5.9844    0.2592   -2.8765 H         1 <0>         0.1287
     25 H5         -6.8818   -1.8426   -3.7862 H         1 <0>         0.1299
     26 H6         -8.0410    3.3083   -2.0290 H         1 <0>         0.1482
     27 H7         -5.4061    1.7877   -2.2067 H         1 <0>         0.1660
     28 H8         -2.5333    4.9373    0.0413 H         1 <0>         0.1485
     29 H9         -0.3898    3.7484    0.0246 H         1 <0>         0.1512
     30 H10        -2.4874   -0.0013    0.0035 H         1 <0>         0.1510
     31 H11        -4.6223    1.2029    0.0310 H         1 <0>         0.1484
     32 H12         0.0021   -0.0041    0.0020 H         1 <0>         0.1143
@<TRIPOS>BOND
     1    1    6 ar
     2    1    2 ar
     3    1   21 1
     4    2    3 ar
     5    2   22 1
     6    3    4 ar
     7    3   23 1
     8    4    5 ar
     9    4    7 1
    10    5    6 ar
    11    5   24 1
    12    6   25 1
    13    7    8 2
    14    7   26 1
    15    8    9 1
    16    8   27 1
    17    9   10 2
    18    9   11 2
    19    9   12 1
    20   12   13 1
    21   13   18 ar
    22   13   14 ar
    23   14   15 ar
    24   14   28 1
    25   15   16 ar
    26   15   29 1
    27   16   17 ar
    28   16   19 1
    29   17   18 ar
    30   17   30 1
    31   18   31 1
    32   19   20 2
    33   19   32 1
@<TRIPOS>MOLECULE
ZINC03122869
   41    43     0     0     0
SMALL
USER_CHARGES
1-phenoxy-3-styrylsulfonyloxy-benzene
@<TRIPOS>ATOM
      1 C1         -0.0519    4.0510    2.5926 C.ar      1 <0>        -0.0952
      2 C2          1.1527    3.4281    2.3186 C.ar      1 <0>        -0.1255
      3 C3          1.1723    2.1197    1.8814 C.ar      1 <0>        -0.0838
      4 C4         -0.0261    1.4245    1.7157 C.ar      1 <0>        -0.1040
      5 C5         -1.2379    2.0604    1.9882 C.ar      1 <0>        -0.0862
      6 C6         -1.2436    3.3672    2.4308 C.ar      1 <0>        -0.1263
      7 C7         -0.0124    0.0225    1.2476 C.2       1 <0>         0.0759
      8 C8         -1.1527   -0.6352    1.0911 C.2       1 <0>        -0.7804
      9 S1         -1.1363   -2.3065    0.5332 S.o2      1 <0>         2.6673
     10 O1         -2.0806   -2.3905   -0.5253 O.2       1 <0>        -0.9476
     11 O2          0.2284   -2.6657    0.3669 O.2       1 <0>        -0.9325
     12 O3         -1.6770   -3.1650    1.6677 O.3       1 <0>        -0.6562
     13 C9         -3.0236   -3.0813    1.8308 C.ar      1 <0>         0.1034
     14 C10        -3.5620   -2.1268    2.6825 C.ar      1 <0>        -0.1571
     15 C11        -4.9311   -2.0380    2.8452 C.ar      1 <0>        -0.0619
     16 C12        -5.7674   -2.9057    2.1688 C.ar      1 <0>        -0.1766
     17 C13        -5.2337   -3.8652    1.3200 C.ar      1 <0>         0.1453
     18 C14        -3.8600   -3.9528    1.1511 C.ar      1 <0>        -0.1222
     19 O4         -6.0564   -4.7184    0.6555 O.3       1 <0>        -0.2509
     20 C15        -7.3960   -4.5882    0.8423 C.ar      1 <0>         0.0739
     21 C16        -8.0285   -5.2951    1.8550 C.ar      1 <0>        -0.1231
     22 C17        -9.3896   -5.1568    2.0461 C.ar      1 <0>        -0.1063
     23 C18       -10.1234   -4.3231    1.2226 C.ar      1 <0>        -0.1129
     24 C19        -9.4965   -3.6219    0.2090 C.ar      1 <0>        -0.1059
     25 C20        -8.1348   -3.7525    0.0170 C.ar      1 <0>        -0.1225
     26 H1         -0.0619    5.0753    2.9347 H         1 <0>         0.1285
     27 H2          2.0796    3.9674    2.4470 H         1 <0>         0.1308
     28 H3          2.1133    1.6344    1.6682 H         1 <0>         0.1331
     29 H4         -2.1692    1.5292    1.8576 H         1 <0>         0.1289
     30 H5         -2.1806    3.8589    2.6467 H         1 <0>         0.1294
     31 H6          0.9266   -0.4660    1.0331 H         1 <0>         0.1480
     32 H7         -2.0917   -0.1467    1.3057 H         1 <0>         0.1663
     33 H8         -2.9104   -1.4505    3.2157 H         1 <0>         0.1448
     34 H9         -5.3483   -1.2919    3.5053 H         1 <0>         0.1451
     35 H10        -6.8371   -2.8367    2.3005 H         1 <0>         0.1411
     36 H11        -3.4427   -4.6986    0.4908 H         1 <0>         0.1518
     37 H12        -7.4565   -5.9499    2.4957 H         1 <0>         0.1331
     38 H13        -9.8817   -5.7039    2.8366 H         1 <0>         0.1328
     39 H14       -11.1881   -4.2195    1.3711 H         1 <0>         0.1304
     40 H15       -10.0721   -2.9719   -0.4333 H         1 <0>         0.1330
     41 H16        -7.6457   -3.2049   -0.7751 H         1 <0>         0.1343
@<TRIPOS>BOND
     1    1    6 ar
     2    1    2 ar
     3    1   26 1
     4    2    3 ar
     5    2   27 1
     6    3    4 ar
     7    3   28 1
     8    4    5 ar
     9    4    7 1
    10    5    6 ar
    11    5   29 1
    12    6   30 1
    13    7    8 2
    14    7   31 1
    15    8    9 1
    16    8   32 1
    17    9   10 2
    18    9   11 2
    19    9   12 1
    20   12   13 1
    21   13   18 ar
    22   13   14 ar
    23   14   15 ar
    24   14   33 1
    25   15   16 ar
    26   15   34 1
    27   16   17 ar
    28   16   35 1
    29   17   18 ar
    30   17   19 1
    31   18   36 1
    32   19   20 1
    33   20   25 ar
    34   20   21 ar
    35   21   22 ar
    36   21   37 1
    37   22   23 ar
    38   22   38 1
    39   23   24 ar
    40   23   39 1
    41   24   25 ar
    42   24   40 1
    43   25   41 1
@<TRIPOS>MOLECULE
ZINC40865720
   52    53     0     0     0
SMALL
USER_CHARGES

@<TRIPOS>ATOM
      1 C1          0.1146    1.5744    0.0087 C.3       1 <0>        -0.1523
      2 C2          0.1044    0.0445    0.0013 C.3       1 <0>        -0.1258
      3 C3          0.8091   -0.4641   -1.2579 C.3       1 <0>        -0.1199
      4 C4          0.7989   -1.9941   -1.2653 C.3       1 <0>        -0.1191
      5 C5          1.5035   -2.5027   -2.5246 C.3       1 <0>        -0.1231
      6 C6          1.4934   -4.0326   -2.5320 C.3       1 <0>        -0.0847
      7 C7          2.1980   -4.5412   -3.7913 C.3       1 <0>        -0.1417
      8 H1          3.1989   -4.1130   -3.8456 H         1 <0>         0.0913
      9 C8          2.2968   -6.0441   -3.7393 C.2       1 <0>         0.5144
     10 O1          1.4511   -6.7299   -4.2879 O.co2     1 <0>        -0.6791
     11 O2          3.2225   -6.5741   -3.1488 O.co2     1 <0>        -0.6828
     12 S1          1.2488   -4.0479   -5.2563 S.3       1 <0>         0.0344
     13 C9          2.2506   -4.5694   -6.6087 C.ar      1 <0>         0.3712
     14 N1          1.8325   -4.3461   -7.8462 N.ar      1 <0>        -0.5482
     15 C10         2.5652   -4.7268   -8.8881 C.ar      1 <0>         0.4467
     16 C11         3.7847   -5.3670   -8.6614 C.ar      1 <0>        -0.2933
     17 C12         4.1846   -5.5810   -7.3547 C.ar      1 <0>         0.2727
     18 N2          3.4060   -5.1703   -6.3629 N.ar      1 <0>        -0.5270
     19 Cl1         5.6922   -6.3726   -7.0167 Cl        1 <0>        -0.0174
     20 N3          2.1241   -4.4917  -10.1814 N.pl3     1 <0>        -0.6453
     21 C13         0.8454   -3.9708  -10.4000 C.ar      1 <0>         0.1679
     22 C14        -0.1526   -4.1542   -9.4511 C.ar      1 <0>        -0.1251
     23 C15        -1.4146   -3.6383   -9.6702 C.ar      1 <0>        -0.0963
     24 C16        -1.6857   -2.9401  -10.8329 C.ar      1 <0>        -0.1429
     25 C17        -0.6949   -2.7562  -11.7795 C.ar      1 <0>        -0.0714
     26 C18         0.5715   -3.2639  -11.5637 C.ar      1 <0>        -0.1290
     27 C19         1.6526   -3.0572  -12.5929 C.3       1 <0>        -0.1128
     28 C20        -0.9951   -1.9956  -13.0454 C.3       1 <0>        -0.1115
     29 H2          1.1446    1.9310   -0.0004 H         1 <0>         0.0521
     30 H3         -0.4062    1.9455   -0.8740 H         1 <0>         0.0525
     31 H4         -0.3874    1.9367    0.9059 H         1 <0>         0.0501
     32 H5          0.6252   -0.3266    0.8841 H         1 <0>         0.0596
     33 H6         -0.9256   -0.3121    0.0104 H         1 <0>         0.0600
     34 H7          0.2883   -0.0931   -2.1406 H         1 <0>         0.0607
     35 H8          1.8390   -0.1076   -1.2670 H         1 <0>         0.0597
     36 H9          1.3197   -2.3652   -0.3826 H         1 <0>         0.0609
     37 H10        -0.2311   -2.3506   -1.2562 H         1 <0>         0.0611
     38 H11         0.9828   -2.1316   -3.4073 H         1 <0>         0.0661
     39 H12         2.5335   -2.1461   -2.5337 H         1 <0>         0.0615
     40 H13         2.0141   -4.4037   -1.6493 H         1 <0>         0.0803
     41 H14         0.4634   -4.3892   -2.5229 H         1 <0>         0.0676
     42 H15         4.4018   -5.6882   -9.4875 H         1 <0>         0.1484
     43 H16         2.7028   -4.6888  -10.9345 H         1 <0>         0.4189
     44 H17         0.0583   -4.6999   -8.5433 H         1 <0>         0.1528
     45 H18        -2.1909   -3.7805   -8.9329 H         1 <0>         0.1244
     46 H19        -2.6737   -2.5380  -11.0019 H         1 <0>         0.1180
     47 H20         1.6371   -3.8808  -13.3067 H         1 <0>         0.0669
     48 H21         1.4795   -2.1179  -13.1182 H         1 <0>         0.0708
     49 H22         2.6234   -3.0233  -12.0984 H         1 <0>         0.0602
     50 H23        -0.7902   -0.9364  -12.8901 H         1 <0>         0.0676
     51 H24        -0.3678   -2.3725  -13.8532 H         1 <0>         0.0652
     52 H25        -2.0446   -2.1279  -13.3085 H         1 <0>         0.0645
@<TRIPOS>BOND
     1    1    2 1
     2    1   29 1
     3    1   30 1
     4    1   31 1
     5    2    3 1
     6    2   32 1
     7    2   33 1
     8    3    4 1
     9    3   34 1
    10    3   35 1
    11    4    5 1
    12    4   36 1
    13    4   37 1
    14    5    6 1
    15    5   38 1
    16    5   39 1
    17    6    7 1
    18    6   40 1
    19    6   41 1
    20    7    8 1
    21    7    9 1
    22    7   12 1
    23    9   10 2
    24    9   11 1
    25   12   13 1
    26   13   18 ar
    27   13   14 ar
    28   14   15 ar
    29   15   16 ar
    30   15   20 1
    31   16   17 ar
    32   16   42 1
    33   17   18 ar
    34   17   19 1
    35   20   21 1
    36   20   43 1
    37   21   26 ar
    38   21   22 ar
    39   22   23 ar
    40   22   44 1
    41   23   24 ar
    42   23   45 1
    43   24   25 ar
    44   24   46 1
    45   25   26 ar
    46   25   28 1
    47   26   27 1
    48   27   47 1
    49   27   48 1
    50   27   49 1
    51   28   50 1
    52   28   51 1
    53   28   52 1
