@<TRIPOS>MOLECULE
ZINC00968328
   45    47     0     0     0
SMALL
USER_CHARGES

@<TRIPOS>ATOM
      1 C1         -0.0178    1.4608    0.0101 C.3       1 <0>         0.0553
      2 N1          0.0021   -0.0041    0.0020 N.pl3     1 <0>        -0.5905
      3 C2          0.0241   -0.7433    1.2666 C.3       1 <0>         0.1145
      4 C3         -1.4105   -1.0203    1.7205 C.3       1 <0>         0.0303
      5 O1         -2.0465   -1.8923    0.7840 O.3       1 <0>        -0.3206
      6 C4         -3.3348   -2.2400    1.0412 C.ar      1 <0>         0.1254
      7 C5         -3.9756   -1.7474    2.1688 C.ar      1 <0>        -0.2022
      8 C6         -5.2854   -2.1021    2.4278 C.ar      1 <0>        -0.0584
      9 C7         -5.9575   -2.9475    1.5646 C.ar      1 <0>        -0.1223
     10 C8         -5.3210   -3.4402    0.4404 C.ar      1 <0>        -0.0671
     11 C9         -4.0133   -3.0837    0.1736 C.ar      1 <0>        -0.1480
     12 C10        -7.3862   -3.3331    1.8499 C.3       1 <0>        -0.0555
     13 C11        -8.3282   -2.3252    1.1885 C.3       1 <0>        -0.0698
     14 H1         -8.1156   -2.2277    0.1239 H         1 <0>         0.1599
     15 C12        -9.7865   -2.6882    1.4311 C.2       1 <0>         0.5294
     16 O2        -10.2728   -3.7226    1.0268 O.2       1 <0>        -0.4537
     17 N2        -10.4863   -1.7976    2.1136 N.am      1 <0>        -0.6890
     18 C13        -9.9701   -0.6427    2.5734 C.2       1 <0>         0.5656
     19 O3        -10.5320    0.2306    3.2056 O.2       1 <0>        -0.4105
     20 S1         -8.2649   -0.6922    2.0368 S.3       1 <0>        -0.1557
     21 C14         0.0000   -0.6925   -1.2055 C.ar      1 <0>         0.4451
     22 C15         0.0132   -2.0839   -1.2060 C.ar      1 <0>        -0.1767
     23 C16         0.0110   -2.7560   -2.4146 C.ar      1 <0>         0.0305
     24 C17        -0.0044   -2.0117   -3.5870 C.ar      1 <0>        -0.1669
     25 C18        -0.0170   -0.6335   -3.5127 C.ar      1 <0>         0.1392
     26 N3         -0.0200   -0.0186   -2.3450 N.ar      1 <0>        -0.5042
     27 H2          1.0048    1.8381    0.0023 H         1 <0>         0.0864
     28 H3         -0.5450    1.8219   -0.8730 H         1 <0>         0.0733
     29 H4         -0.5280    1.8123    0.9069 H         1 <0>         0.1059
     30 H5          0.5496   -1.6879    1.1262 H         1 <0>         0.1083
     31 H6          0.5371   -0.1514    2.0246 H         1 <0>         0.1286
     32 H7         -1.3961   -1.4911    2.7035 H         1 <0>         0.0921
     33 H8         -1.9619   -0.0816    1.7754 H         1 <0>         0.0744
     34 H9         -3.4507   -1.0876    2.8437 H         1 <0>         0.1290
     35 H10        -5.7846   -1.7188    3.3055 H         1 <0>         0.1345
     36 H11        -5.8481   -4.1007   -0.2321 H         1 <0>         0.1360
     37 H12        -3.5179   -3.4652   -0.7070 H         1 <0>         0.1294
     38 H13        -7.5805   -4.3285    1.4504 H         1 <0>         0.1089
     39 H14        -7.5539   -3.3347    2.9269 H         1 <0>         0.0935
     40 H15       -11.4209   -1.9864    2.2920 H         1 <0>         0.4214
     41 H16         0.0254   -2.6314   -0.2752 H         1 <0>         0.1792
     42 H17         0.0214   -3.8355   -2.4461 H         1 <0>         0.1727
     43 H18        -0.0062   -2.5062   -4.5471 H         1 <0>         0.1794
     44 H19        -0.0287   -0.0508   -4.4219 H         1 <0>         0.2048
     45 H20        -0.0329    0.9510   -2.3209 H         1 <0>         0.4381
@<TRIPOS>BOND
     1    1    2 1
     2    1   27 1
     3    1   28 1
     4    1   29 1
     5    2    3 1
     6    2   21 1
     7    3    4 1
     8    3   30 1
     9    3   31 1
    10    4    5 1
    11    4   32 1
    12    4   33 1
    13    5    6 1
    14    6   11 ar
    15    6    7 ar
    16    7    8 ar
    17    7   34 1
    18    8    9 ar
    19    8   35 1
    20    9   10 ar
    21    9   12 1
    22   10   11 ar
    23   10   36 1
    24   11   37 1
    25   12   13 1
    26   12   38 1
    27   12   39 1
    28   13   14 1
    29   13   20 1
    30   13   15 1
    31   15   16 2
    32   15   17 am
    33   17   18 am
    34   17   40 1
    35   18   19 2
    36   18   20 1
    37   21   26 ar
    38   21   22 ar
    39   22   23 ar
    40   22   41 1
    41   23   24 ar
    42   23   42 1
    43   24   25 ar
    44   24   43 1
    45   25   26 ar
    46   25   44 1
    47   26   45 1
@<TRIPOS>MOLECULE
ZINC00968328
   44    46     0     0     0
SMALL
USER_CHARGES

@<TRIPOS>ATOM
      1 C1         -0.0178    1.4608    0.0101 C.3       1 <0>         0.0943
      2 N1          0.0021   -0.0041    0.0020 N.pl3     1 <0>        -0.6139
      3 C2          0.0241   -0.7433    1.2666 C.3       1 <0>         0.1321
      4 C3         -1.4105   -1.0203    1.7205 C.3       1 <0>         0.0409
      5 O1         -2.0465   -1.8923    0.7840 O.3       1 <0>        -0.2838
      6 C4         -3.3348   -2.2400    1.0412 C.ar      1 <0>         0.1410
      7 C5         -3.9756   -1.7474    2.1688 C.ar      1 <0>        -0.2122
      8 C6         -5.2854   -2.1021    2.4278 C.ar      1 <0>        -0.0601
      9 C7         -5.9575   -2.9475    1.5646 C.ar      1 <0>        -0.1420
     10 C8         -5.3210   -3.4402    0.4404 C.ar      1 <0>        -0.0675
     11 C9         -4.0133   -3.0837    0.1736 C.ar      1 <0>        -0.1507
     12 C10        -7.3862   -3.3331    1.8499 C.3       1 <0>        -0.0487
     13 C11        -8.3282   -2.3252    1.1885 C.3       1 <0>        -0.0704
     14 H1         -8.1156   -2.2277    0.1239 H         1 <0>         0.1610
     15 C12        -9.7865   -2.6882    1.4311 C.2       1 <0>         0.5301
     16 O2        -10.2728   -3.7226    1.0268 O.2       1 <0>        -0.4577
     17 N2        -10.4863   -1.7976    2.1136 N.am      1 <0>        -0.6898
     18 C13        -9.9701   -0.6427    2.5734 C.2       1 <0>         0.5614
     19 O3        -10.5320    0.2306    3.2056 O.2       1 <0>        -0.4177
     20 S1         -8.2649   -0.6922    2.0368 S.3       1 <0>        -0.1442
     21 C14         0.0000   -0.6925   -1.2055 C.ar      1 <0>         0.4042
     22 C15         0.0901    0.0128   -2.4015 C.ar      1 <0>        -0.2403
     23 C16         0.0870   -0.6849   -3.5956 C.ar      1 <0>        -0.0375
     24 C17        -0.0066   -2.0699   -3.5538 C.ar      1 <0>        -0.2346
     25 C18        -0.0930   -2.7051   -2.3314 C.ar      1 <0>         0.1463
     26 N3         -0.0823   -2.0140   -1.2072 N.ar      1 <0>        -0.5187
     27 H2          1.0048    1.8381    0.0023 H         1 <0>         0.0542
     28 H3         -0.5450    1.8219   -0.8730 H         1 <0>         0.0704
     29 H4         -0.5280    1.8123    0.9069 H         1 <0>         0.0700
     30 H5          0.5496   -1.6879    1.1262 H         1 <0>         0.0964
     31 H6          0.5371   -0.1514    2.0246 H         1 <0>         0.0938
     32 H7         -1.3961   -1.4911    2.7035 H         1 <0>         0.0688
     33 H8         -1.9619   -0.0816    1.7754 H         1 <0>         0.0592
     34 H9         -3.4507   -1.0876    2.8437 H         1 <0>         0.1266
     35 H10        -5.7846   -1.7188    3.3055 H         1 <0>         0.1282
     36 H11        -5.8481   -4.1007   -0.2321 H         1 <0>         0.1303
     37 H12        -3.5179   -3.4652   -0.7070 H         1 <0>         0.1299
     38 H13        -7.5805   -4.3285    1.4504 H         1 <0>         0.1051
     39 H14        -7.5539   -3.3347    2.9269 H         1 <0>         0.0892
     40 H15       -11.4209   -1.9864    2.2920 H         1 <0>         0.4182
     41 H16         0.1612    1.0904   -2.3974 H         1 <0>         0.1284
     42 H17         0.1553   -0.1643   -4.5394 H         1 <0>         0.1296
     43 H18        -0.0120   -2.6441   -4.4685 H         1 <0>         0.1285
     44 H19        -0.1662   -3.7820   -2.2944 H         1 <0>         0.1519
@<TRIPOS>BOND
     1    1    2 1
     2    1   27 1
     3    1   28 1
     4    1   29 1
     5    2    3 1
     6    2   21 1
     7    3    4 1
     8    3   30 1
     9    3   31 1
    10    4    5 1
    11    4   32 1
    12    4   33 1
    13    5    6 1
    14    6   11 ar
    15    6    7 ar
    16    7    8 ar
    17    7   34 1
    18    8    9 ar
    19    8   35 1
    20    9   10 ar
    21    9   12 1
    22   10   11 ar
    23   10   36 1
    24   11   37 1
    25   12   13 1
    26   12   38 1
    27   12   39 1
    28   13   14 1
    29   13   20 1
    30   13   15 1
    31   15   16 2
    32   15   17 am
    33   17   18 am
    34   17   40 1
    35   18   19 2
    36   18   20 1
    37   21   26 ar
    38   21   22 ar
    39   22   23 ar
    40   22   41 1
    41   23   24 ar
    42   23   42 1
    43   24   25 ar
    44   24   43 1
    45   25   26 ar
    46   25   44 1
@<TRIPOS>MOLECULE
ZINC00968330
   45    47     0     0     0
SMALL
USER_CHARGES

@<TRIPOS>ATOM
      1 C1         -0.0178    1.4608    0.0101 C.3       1 <0>         0.0556
      2 N1          0.0021   -0.0041    0.0020 N.pl3     1 <0>        -0.5910
      3 C2          0.0241   -0.7433    1.2666 C.3       1 <0>         0.1145
      4 C3         -1.4105   -1.0203    1.7205 C.3       1 <0>         0.0306
      5 O1         -2.0465   -1.8923    0.7840 O.3       1 <0>        -0.3203
      6 C4         -3.3348   -2.2400    1.0412 C.ar      1 <0>         0.1254
      7 C5         -3.9756   -1.7474    2.1688 C.ar      1 <0>        -0.2040
      8 C6         -5.2854   -2.1021    2.4278 C.ar      1 <0>        -0.0654
      9 C7         -5.9575   -2.9475    1.5646 C.ar      1 <0>        -0.1221
     10 C8         -5.3210   -3.4402    0.4404 C.ar      1 <0>        -0.0603
     11 C9         -4.0133   -3.0837    0.1736 C.ar      1 <0>        -0.1461
     12 C10        -7.3862   -3.3331    1.8499 C.3       1 <0>        -0.0555
     13 C11        -8.3282   -2.3252    1.1885 C.3       1 <0>        -0.0697
     14 H1         -8.0909   -1.3060    1.4933 H         1 <0>         0.1596
     15 C12        -9.7859   -2.6623    1.4695 C.2       1 <0>         0.5292
     16 O2        -10.2448   -2.6686    2.5917 O.2       1 <0>        -0.4534
     17 N2        -10.5170   -2.9474    0.4052 N.am      1 <0>        -0.6890
     18 C13       -10.0318   -2.9469   -0.8502 C.2       1 <0>         0.5657
     19 O3        -10.6238   -3.1938   -1.8830 O.2       1 <0>        -0.4109
     20 S1         -8.3132   -2.4970   -0.6448 S.3       1 <0>        -0.1554
     21 C14         0.0000   -0.6925   -1.2055 C.ar      1 <0>         0.4449
     22 C15         0.0132   -2.0839   -1.2060 C.ar      1 <0>        -0.1767
     23 C16         0.0110   -2.7560   -2.4146 C.ar      1 <0>         0.0308
     24 C17        -0.0044   -2.0117   -3.5870 C.ar      1 <0>        -0.1664
     25 C18        -0.0170   -0.6335   -3.5127 C.ar      1 <0>         0.1393
     26 N3         -0.0200   -0.0186   -2.3450 N.ar      1 <0>        -0.5040
     27 H2          1.0048    1.8381    0.0023 H         1 <0>         0.0863
     28 H3         -0.5450    1.8219   -0.8730 H         1 <0>         0.0733
     29 H4         -0.5280    1.8123    0.9069 H         1 <0>         0.1054
     30 H5          0.5496   -1.6879    1.1262 H         1 <0>         0.1083
     31 H6          0.5371   -0.1514    2.0246 H         1 <0>         0.1284
     32 H7         -1.3961   -1.4911    2.7035 H         1 <0>         0.0918
     33 H8         -1.9619   -0.0816    1.7754 H         1 <0>         0.0738
     34 H9         -3.4507   -1.0876    2.8437 H         1 <0>         0.1287
     35 H10        -5.7846   -1.7188    3.3055 H         1 <0>         0.1320
     36 H11        -5.8481   -4.1007   -0.2321 H         1 <0>         0.1384
     37 H12        -3.5179   -3.4652   -0.7070 H         1 <0>         0.1298
     38 H13        -7.5805   -4.3285    1.4504 H         1 <0>         0.0942
     39 H14        -7.5539   -3.3347    2.9269 H         1 <0>         0.1083
     40 H15       -11.4523   -3.1688    0.5362 H         1 <0>         0.4215
     41 H16         0.0254   -2.6314   -0.2752 H         1 <0>         0.1791
     42 H17         0.0214   -3.8355   -2.4461 H         1 <0>         0.1728
     43 H18        -0.0062   -2.5062   -4.5471 H         1 <0>         0.1796
     44 H19        -0.0287   -0.0508   -4.4219 H         1 <0>         0.2049
     45 H20        -0.0329    0.9510   -2.3209 H         1 <0>         0.4380
@<TRIPOS>BOND
     1    1    2 1
     2    1   27 1
     3    1   28 1
     4    1   29 1
     5    2    3 1
     6    2   21 1
     7    3    4 1
     8    3   30 1
     9    3   31 1
    10    4    5 1
    11    4   32 1
    12    4   33 1
    13    5    6 1
    14    6   11 ar
    15    6    7 ar
    16    7    8 ar
    17    7   34 1
    18    8    9 ar
    19    8   35 1
    20    9   10 ar
    21    9   12 1
    22   10   11 ar
    23   10   36 1
    24   11   37 1
    25   12   13 1
    26   12   38 1
    27   12   39 1
    28   13   14 1
    29   13   20 1
    30   13   15 1
    31   15   16 2
    32   15   17 am
    33   17   18 am
    34   17   40 1
    35   18   19 2
    36   18   20 1
    37   21   26 ar
    38   21   22 ar
    39   22   23 ar
    40   22   41 1
    41   23   24 ar
    42   23   42 1
    43   24   25 ar
    44   24   43 1
    45   25   26 ar
    46   25   44 1
    47   26   45 1
@<TRIPOS>MOLECULE
ZINC00968330
   44    46     0     0     0
SMALL
USER_CHARGES

@<TRIPOS>ATOM
      1 C1         -0.0178    1.4608    0.0101 C.3       1 <0>         0.0945
      2 N1          0.0021   -0.0041    0.0020 N.pl3     1 <0>        -0.6142
      3 C2          0.0241   -0.7433    1.2666 C.3       1 <0>         0.1321
      4 C3         -1.4105   -1.0203    1.7205 C.3       1 <0>         0.0411
      5 O1         -2.0465   -1.8923    0.7840 O.3       1 <0>        -0.2835
      6 C4         -3.3348   -2.2400    1.0412 C.ar      1 <0>         0.1409
      7 C5         -3.9756   -1.7474    2.1688 C.ar      1 <0>        -0.2139
      8 C6         -5.2854   -2.1021    2.4278 C.ar      1 <0>        -0.0668
      9 C7         -5.9575   -2.9475    1.5646 C.ar      1 <0>        -0.1417
     10 C8         -5.3210   -3.4402    0.4404 C.ar      1 <0>        -0.0611
     11 C9         -4.0133   -3.0837    0.1736 C.ar      1 <0>        -0.1489
     12 C10        -7.3862   -3.3331    1.8499 C.3       1 <0>        -0.0487
     13 C11        -8.3282   -2.3252    1.1885 C.3       1 <0>        -0.0711
     14 H1         -8.0909   -1.3060    1.4933 H         1 <0>         0.1601
     15 C12        -9.7859   -2.6623    1.4695 C.2       1 <0>         0.5303
     16 O2        -10.2448   -2.6686    2.5917 O.2       1 <0>        -0.4587
     17 N2        -10.5170   -2.9474    0.4052 N.am      1 <0>        -0.6898
     18 C13       -10.0318   -2.9469   -0.8502 C.2       1 <0>         0.5609
     19 O3        -10.6238   -3.1938   -1.8830 O.2       1 <0>        -0.4172
     20 S1         -8.3132   -2.4970   -0.6448 S.3       1 <0>        -0.1415
     21 C14         0.0000   -0.6925   -1.2055 C.ar      1 <0>         0.4038
     22 C15         0.0901    0.0128   -2.4015 C.ar      1 <0>        -0.2402
     23 C16         0.0870   -0.6849   -3.5956 C.ar      1 <0>        -0.0374
     24 C17        -0.0066   -2.0699   -3.5538 C.ar      1 <0>        -0.2340
     25 C18        -0.0930   -2.7051   -2.3314 C.ar      1 <0>         0.1464
     26 N3         -0.0823   -2.0140   -1.2072 N.ar      1 <0>        -0.5186
     27 H2          1.0048    1.8381    0.0023 H         1 <0>         0.0541
     28 H3         -0.5450    1.8219   -0.8730 H         1 <0>         0.0704
     29 H4         -0.5280    1.8123    0.9069 H         1 <0>         0.0696
     30 H5          0.5496   -1.6879    1.1262 H         1 <0>         0.0964
     31 H6          0.5371   -0.1514    2.0246 H         1 <0>         0.0936
     32 H7         -1.3961   -1.4911    2.7035 H         1 <0>         0.0686
     33 H8         -1.9619   -0.0816    1.7754 H         1 <0>         0.0586
     34 H9         -3.4507   -1.0876    2.8437 H         1 <0>         0.1263
     35 H10        -5.7846   -1.7188    3.3055 H         1 <0>         0.1256
     36 H11        -5.8481   -4.1007   -0.2321 H         1 <0>         0.1327
     37 H12        -3.5179   -3.4652   -0.7070 H         1 <0>         0.1303
     38 H13        -7.5805   -4.3285    1.4504 H         1 <0>         0.0900
     39 H14        -7.5539   -3.3347    2.9269 H         1 <0>         0.1041
     40 H15       -11.4523   -3.1688    0.5362 H         1 <0>         0.4181
     41 H16         0.1612    1.0904   -2.3974 H         1 <0>         0.1282
     42 H17         0.1553   -0.1643   -4.5394 H         1 <0>         0.1296
     43 H18        -0.0120   -2.6441   -4.4685 H         1 <0>         0.1287
     44 H19        -0.1662   -3.7820   -2.2944 H         1 <0>         0.1520
@<TRIPOS>BOND
     1    1    2 1
     2    1   27 1
     3    1   28 1
     4    1   29 1
     5    2    3 1
     6    2   21 1
     7    3    4 1
     8    3   30 1
     9    3   31 1
    10    4    5 1
    11    4   32 1
    12    4   33 1
    13    5    6 1
    14    6   11 ar
    15    6    7 ar
    16    7    8 ar
    17    7   34 1
    18    8    9 ar
    19    8   35 1
    20    9   10 ar
    21    9   12 1
    22   10   11 ar
    23   10   36 1
    24   11   37 1
    25   12   13 1
    26   12   38 1
    27   12   39 1
    28   13   14 1
    29   13   20 1
    30   13   15 1
    31   15   16 2
    32   15   17 am
    33   17   18 am
    34   17   40 1
    35   18   19 2
    36   18   20 1
    37   21   26 ar
    38   21   22 ar
    39   22   23 ar
    40   22   41 1
    41   23   24 ar
    42   23   42 1
    43   24   25 ar
    44   24   43 1
    45   25   26 ar
    46   25   44 1
@<TRIPOS>MOLECULE
ZINC12358521
   58    59     0     0     0
SMALL
USER_CHARGES
(5Z)-5-[(3aS,4R,5R,6aS)-5-hydroxy-4-[(E,3S)-3-hydroxyoct-1-enyl]-3,3a,4,5,6,6a-hexahydro-1H-pentalen-2-ylidene]pentanoic acid
@<TRIPOS>ATOM
      1 C1         -0.0604    1.1126   -4.9886 C.3       1 <0>        -0.1536
      2 C2         -0.7766    1.6061   -3.7298 C.3       1 <0>        -0.1257
      3 C3         -0.0366    1.0992   -2.4903 C.3       1 <0>        -0.1208
      4 C4         -0.7527    1.5927   -1.2315 C.3       1 <0>        -0.1172
      5 C5         -0.0127    1.0858    0.0080 C.3       1 <0>        -0.1447
      6 C6         -0.7288    1.5792    1.2668 C.3       1 <0>         0.1360
      7 H1         -1.7755    1.2768    1.2315 H         1 <0>         0.1068
      8 C7         -0.0738    0.9805    2.4848 C.2       1 <0>        -0.1928
      9 C8          0.3670    1.7596    3.4412 C.2       1 <0>        -0.1361
     10 C9          1.0221    1.1608    4.6591 C.3       1 <0>        -0.0513
     11 H2          1.0556    0.0749    4.5715 H         1 <0>         0.0893
     12 C10         2.4456    1.7238    4.8268 C.3       1 <0>         0.1093
     13 H3          2.5036    2.7345    4.4229 H         1 <0>         0.0600
     14 C11         2.6866    1.7407    6.3486 C.3       1 <0>        -0.1526
     15 C12         1.3055    1.9325    6.9934 C.3       1 <0>        -0.0849
     16 H4          1.1740    2.9593    7.3347 H         1 <0>         0.0790
     17 C13         0.2543    1.5663    5.9265 C.3       1 <0>        -0.0758
     18 H5         -0.4095    2.4076    5.7274 H         1 <0>         0.0827
     19 C14        -0.5139    0.3514    6.4708 C.3       1 <0>        -0.0841
     20 C15        -0.2479    0.3206    7.9629 C.2       1 <0>        -0.1466
     21 C16        -1.0424   -0.1320    8.9010 C.2       1 <0>        -0.1276
     22 C17        -2.3892   -0.7021    8.5375 C.3       1 <0>        -0.0931
     23 C18        -2.5143   -2.1172    9.1056 C.3       1 <0>        -0.0919
     24 C19        -3.8817   -2.6959    8.7366 C.3       1 <0>        -0.1581
     25 C20        -4.0048   -4.0898    9.2961 C.2       1 <0>         0.4574
     26 O1         -3.0925   -4.5709    9.9255 O.co2     1 <0>        -0.6422
     27 C21         1.1312    0.9245    8.1405 C.3       1 <0>        -0.0824
     28 O2          3.3956    0.8738    4.1809 O.3       1 <0>        -0.5623
     29 O3         -0.6468    3.0043    1.3339 O.3       1 <0>        -0.5583
     30 H6         -0.0456    0.0228   -4.9946 H         1 <0>         0.0533
     31 H7         -0.5876    1.4737   -5.8717 H         1 <0>         0.0525
     32 H8          0.9622    1.4899   -4.9964 H         1 <0>         0.0525
     33 H9         -1.7991    1.2288   -3.7221 H         1 <0>         0.0609
     34 H10        -0.7913    2.6960   -3.7239 H         1 <0>         0.0602
     35 H11         0.9860    1.4765   -2.4981 H         1 <0>         0.0593
     36 H12        -0.0218    0.0093   -2.4963 H         1 <0>         0.0605
     37 H13        -1.7753    1.2154   -1.2238 H         1 <0>         0.0616
     38 H14        -0.7675    2.6825   -1.2255 H         1 <0>         0.0673
     39 H15         0.0021   -0.0041    0.0020 H         1 <0>         0.0729
     40 H16         1.0099    1.4631    0.0003 H         1 <0>         0.0651
     41 H17         0.0323   -0.0910    2.5691 H         1 <0>         0.1160
     42 H18         0.2610    2.8311    3.3568 H         1 <0>         0.1157
     43 H19         3.3441    2.5679    6.6160 H         1 <0>         0.0656
     44 H20         3.1233    0.7952    6.6703 H         1 <0>         0.0787
     45 H21        -1.5812    0.4672    6.2823 H         1 <0>         0.0712
     46 H22        -0.1472   -0.5636    6.0054 H         1 <0>         0.0756
     47 H23        -0.7322   -0.0966    9.9349 H         1 <0>         0.1110
     48 H24        -3.1749   -0.0723    8.9548 H         1 <0>         0.0667
     49 H25        -2.4886   -0.7360    7.4526 H         1 <0>         0.0638
     50 H26        -1.7285   -2.7469    8.6883 H         1 <0>         0.0595
     51 H27        -2.4149   -2.0833   10.1905 H         1 <0>         0.0600
     52 H28        -4.6674   -2.0661    9.1539 H         1 <0>         0.0621
     53 H29        -3.9810   -2.7298    7.6516 H         1 <0>         0.0615
     54 H30         1.8924    0.1470    8.0756 H         1 <0>         0.0749
     55 H31         1.1976    1.4346    9.1015 H         1 <0>         0.0650
     56 H32         4.3101    1.1793    4.2539 H         1 <0>         0.3757
     57 H33         0.2576    3.3450    1.3680 H         1 <0>         0.3719
     58 O4         -5.1280   -4.7968    9.0953 O.co2     1 <0>        -0.7795
@<TRIPOS>BOND
     1    1    2 1
     2    1   30 1
     3    1   31 1
     4    1   32 1
     5    2    3 1
     6    2   33 1
     7    2   34 1
     8    3    4 1
     9    3   35 1
    10    3   36 1
    11    4    5 1
    12    4   37 1
    13    4   38 1
    14    5    6 1
    15    5   39 1
    16    5   40 1
    17    6    7 1
    18    6    8 1
    19    6   29 1
    20    8    9 2
    21    8   41 1
    22    9   10 1
    23    9   42 1
    24   10   11 1
    25   10   17 1
    26   10   12 1
    27   12   13 1
    28   12   14 1
    29   12   28 1
    30   14   15 1
    31   14   43 1
    32   14   44 1
    33   15   16 1
    34   15   27 1
    35   15   17 1
    36   17   18 1
    37   17   19 1
    38   19   20 1
    39   19   45 1
    40   19   46 1
    41   20   21 2
    42   20   27 1
    43   21   22 1
    44   21   47 1
    45   22   23 1
    46   22   48 1
    47   22   49 1
    48   23   24 1
    49   23   50 1
    50   23   51 1
    51   24   25 1
    52   24   52 1
    53   24   53 1
    54   25   26 2
    55   25   58 1
    56   27   54 1
    57   27   55 1
    58   28   56 1
    59   29   57 1
@<TRIPOS>MOLECULE
ZINC03935839
   65    68     0     0     0
SMALL
USER_CHARGES
2-[(4-methoxyphenoxy)carbonyl-[[4-[2-(5-methyl-2-phenyl-oxazol-4-yl)ethoxy]phenyl]methyl]amino]acetic acid
@<TRIPOS>ATOM
      1 C1          5.7284    4.6878   -8.7378 C.3       1 <0>        -0.0732
      2 C2          7.1637    4.9701   -8.3755 C.2       1 <0>        -0.0310
      3 C3          7.6048    5.9552   -7.5722 C.2       1 <0>        -0.0075
      4 N1          8.9422    5.8685   -7.5120 N.2       1 <0>        -0.4591
      5 C4          9.3304    4.8535   -8.2475 C.2       1 <0>         0.2296
      6 O1          8.2440    4.2829   -8.7964 O.3       1 <0>        -0.1930
      7 C5         10.7283    4.4149   -8.4444 C.ar      1 <0>        -0.0175
      8 C6         11.7721    5.0989   -7.8193 C.ar      1 <0>        -0.0706
      9 C7         13.0741    4.6808   -8.0026 C.ar      1 <0>        -0.1205
     10 C8         13.3470    3.5933   -8.8132 C.ar      1 <0>        -0.1009
     11 C9         12.3174    2.9145   -9.4403 C.ar      1 <0>        -0.1210
     12 C10        11.0106    3.3187   -9.2608 C.ar      1 <0>        -0.0904
     13 C11         6.7492    6.9780   -6.8702 C.3       1 <0>        -0.0343
     14 C12         6.3452    6.4465   -5.4935 C.3       1 <0>         0.0671
     15 O2          5.5338    7.4163   -4.8278 O.3       1 <0>        -0.3152
     16 C13         5.0875    7.0984   -3.5842 C.ar      1 <0>         0.1283
     17 C14         4.2951    7.9936   -2.8804 C.ar      1 <0>        -0.1538
     18 C15         3.8422    7.6678   -1.6166 C.ar      1 <0>        -0.0624
     19 C16         4.1781    6.4507   -1.0531 C.ar      1 <0>        -0.1390
     20 C17         4.9723    5.5591   -1.7501 C.ar      1 <0>        -0.0528
     21 C18         5.4231    5.8778   -3.0165 C.ar      1 <0>        -0.2122
     22 C19         3.6827    6.0979    0.3258 C.3       1 <0>         0.1801
     23 N2          2.3904    5.4158    0.2207 N.am      1 <0>        -0.5564
     24 C20         1.1484    6.1925    0.2400 C.3       1 <0>         0.0668
     25 C21         0.6702    6.3399    1.6615 C.2       1 <0>         0.4500
     26 O3          1.3021    5.8468    2.5657 O.co2     1 <0>        -0.6266
     27 C22         2.3443    4.0737    0.1062 C.2       1 <0>         0.6567
     28 O4          3.3745    3.4294    0.0901 O.2       1 <0>        -0.5740
     29 O5          1.1565    3.4466    0.0096 O.3       1 <0>        -0.2960
     30 C23         1.1733    2.0868    0.0221 C.ar      1 <0>         0.0828
     31 C24         1.4951    1.4080    1.1881 C.ar      1 <0>        -0.0764
     32 C25         1.5122    0.0270    1.2009 C.ar      1 <0>        -0.1346
     33 C26         1.2077   -0.6811    0.0477 C.ar      1 <0>         0.1198
     34 C27         0.8859   -0.0022   -1.1183 C.ar      1 <0>        -0.1959
     35 C28         0.8687    1.3788   -1.1310 C.ar      1 <0>        -0.0808
     36 O6          1.2250   -2.0406    0.0601 O.3       1 <0>        -0.3173
     37 C29         0.9011   -2.7048   -1.1630 C.3       1 <0>         0.0271
     38 H1          5.4642    5.2449   -9.6367 H         1 <0>         0.0888
     39 H2          5.6032    3.6208   -8.9217 H         1 <0>         0.0823
     40 H3          5.0796    4.9936   -7.9171 H         1 <0>         0.0958
     41 H4         11.5607    5.9507   -7.1899 H         1 <0>         0.1389
     42 H5         13.8823    5.2064   -7.5160 H         1 <0>         0.1328
     43 H6         14.3682    3.2726   -8.9568 H         1 <0>         0.1286
     44 H7         12.5371    2.0661  -10.0715 H         1 <0>         0.1308
     45 H8         10.2077    2.7877   -9.7506 H         1 <0>         0.1301
     46 H9          5.8545    7.1711   -7.4620 H         1 <0>         0.0932
     47 H10         7.3129    7.9033   -6.7513 H         1 <0>         0.0952
     48 H11         7.2399    6.2534   -4.9017 H         1 <0>         0.0661
     49 H12         5.7815    5.5212   -5.6124 H         1 <0>         0.0614
     50 H13         4.0322    8.9443   -3.3204 H         1 <0>         0.1302
     51 H14         3.2250    8.3643   -1.0685 H         1 <0>         0.1325
     52 H15         5.2372    4.6111   -1.3058 H         1 <0>         0.1317
     53 H16         6.0398    5.1792   -3.5624 H         1 <0>         0.1227
     54 H17         3.5662    7.0082    0.9139 H         1 <0>         0.0936
     55 H18         4.4022    5.4400    0.8131 H         1 <0>         0.0926
     56 H19         1.3301    7.1790   -0.1864 H         1 <0>         0.0853
     57 H20         0.3885    5.6771   -0.3474 H         1 <0>         0.0879
     58 H21         1.7278    1.9592    2.0872 H         1 <0>         0.1390
     59 H22         1.7624   -0.5016    2.1089 H         1 <0>         0.1366
     60 H23         0.6491   -0.5535   -2.0164 H         1 <0>         0.1330
     61 H24         0.6185    1.9074   -2.0390 H         1 <0>         0.1324
     62 H25         0.9521   -3.7835   -1.0153 H         1 <0>         0.0980
     63 H26        -0.1071   -2.4275   -1.4711 H         1 <0>         0.0552
     64 H27         1.6111   -2.4099   -1.9357 H         1 <0>         0.0546
     65 O7         -0.4576    7.0190    1.9232 O.co2     1 <0>        -0.7655
@<TRIPOS>BOND
     1    1    2 1
     2    1   38 1
     3    1   39 1
     4    1   40 1
     5    2    6 1
     6    2    3 2
     7    3    4 1
     8    3   13 1
     9    4    5 2
    10    5    6 1
    11    5    7 1
    12    7   12 ar
    13    7    8 ar
    14    8    9 ar
    15    8   41 1
    16    9   10 ar
    17    9   42 1
    18   10   11 ar
    19   10   43 1
    20   11   12 ar
    21   11   44 1
    22   12   45 1
    23   13   14 1
    24   13   46 1
    25   13   47 1
    26   14   15 1
    27   14   48 1
    28   14   49 1
    29   15   16 1
    30   16   21 ar
    31   16   17 ar
    32   17   18 ar
    33   17   50 1
    34   18   19 ar
    35   18   51 1
    36   19   20 ar
    37   19   22 1
    38   20   21 ar
    39   20   52 1
    40   21   53 1
    41   22   23 1
    42   22   54 1
    43   22   55 1
    44   23   24 1
    45   23   27 am
    46   24   25 1
    47   24   56 1
    48   24   57 1
    49   25   26 2
    50   25   65 1
    51   27   28 2
    52   27   29 1
    53   29   30 1
    54   30   35 ar
    55   30   31 ar
    56   31   32 ar
    57   31   58 1
    58   32   33 ar
    59   32   59 1
    60   33   34 ar
    61   33   36 1
    62   34   35 ar
    63   34   60 1
    64   35   61 1
    65   36   37 1
    66   37   62 1
    67   37   63 1
    68   37   64 1
@<TRIPOS>MOLECULE
ZINC03995991
   80    82     0     0     0
SMALL
USER_CHARGES

@<TRIPOS>ATOM
      1 C1         -1.4579   -0.0905   -0.4585 C.3       1 <0>        -0.1062
      2 C2          0.0278    0.2268   -0.2766 C.3       1 <0>        -0.1195
      3 C3          0.2789    1.6996   -0.6061 C.3       1 <0>        -0.1362
      4 C4          0.4281   -0.0439    1.1509 C.2       1 <0>         0.5009
      5 O1          1.2954   -0.8651    1.3955 O.co2     1 <0>        -0.6638
      6 O2         -0.1153    0.5584    2.0611 O.co2     1 <0>        -0.6827
      7 S1          1.0097   -0.8175   -1.3883 S.3       1 <0>        -0.1197
      8 C5          2.6709   -0.3090   -1.0943 C.ar      1 <0>        -0.0457
      9 C6          2.9554    0.5797   -0.0644 C.ar      1 <0>        -0.0923
     10 C7          4.2584    0.9759    0.1631 C.ar      1 <0>        -0.1041
     11 C8          5.2798    0.4896   -0.6325 C.ar      1 <0>        -0.1080
     12 C9          5.0004   -0.3946   -1.6586 C.ar      1 <0>        -0.1099
     13 C10         3.7005   -0.8001   -1.8881 C.ar      1 <0>        -0.1130
     14 C11         6.7006    0.9245   -0.3811 C.3       1 <0>        -0.0873
     15 C12         7.3601   -0.0361    0.6106 C.3       1 <0>         0.1138
     16 N1          8.7413    0.3867    0.8550 N.am      1 <0>        -0.6265
     17 C13         9.0392    1.3236    1.9412 C.3       1 <0>         0.1331
     18 C14         9.3215    0.5420    3.2258 C.3       1 <0>        -0.1347
     19 C15         9.6327    1.5205    4.3601 C.3       1 <0>        -0.1163
     20 C16         9.9150    0.7389    5.6448 C.3       1 <0>        -0.1138
     21 C17        10.2262    1.7173    6.7791 C.3       1 <0>        -0.0869
     22 C18        11.5241    2.4646    6.4664 C.3       1 <0>        -0.1156
     23 C19        11.8353    3.4431    7.6007 C.3       1 <0>        -0.1205
     24 C20        11.9948    2.6702    8.9115 C.3       1 <0>        -0.1196
     25 C21        10.6969    1.9230    9.2242 C.3       1 <0>        -0.1201
     26 C22        10.3857    0.9445    8.0899 C.3       1 <0>        -0.1153
     27 C23         9.7379   -0.0863    0.0807 C.2       1 <0>         0.7084
     28 O3         10.8842    0.2646    0.2836 O.2       1 <0>        -0.5929
     29 N2          9.4638   -0.9482   -0.9185 N.am      1 <0>        -0.7440
     30 C24        10.5470   -1.4623   -1.7602 C.3       1 <0>         0.1646
     31 C25        10.8294   -0.4704   -2.8904 C.3       1 <0>        -0.1295
     32 C26        11.9607   -1.0073   -3.7694 C.3       1 <0>        -0.1162
     33 C27        11.5482   -2.3550   -4.3648 C.3       1 <0>        -0.1219
     34 C28        11.2659   -3.3469   -3.2347 C.3       1 <0>        -0.1145
     35 C29        10.1345   -2.8100   -2.3556 C.3       1 <0>        -0.1283
     36 H1         -1.7252    0.0124   -1.5102 H         1 <0>         0.0499
     37 H2         -1.6539   -1.1117   -0.1320 H         1 <0>         0.0554
     38 H3         -2.0528    0.6020    0.1370 H         1 <0>         0.0726
     39 H4         -0.2072    2.3271    0.1409 H         1 <0>         0.0689
     40 H5          1.3512    1.8951   -0.6027 H         1 <0>         0.0597
     41 H6         -0.1285    1.9260   -1.5915 H         1 <0>         0.0521
     42 H7          2.1583    0.9602    0.5570 H         1 <0>         0.1409
     43 H8          4.4802    1.6668    0.9630 H         1 <0>         0.1152
     44 H9          5.8004   -0.7721   -2.2782 H         1 <0>         0.1146
     45 H10         3.4837   -1.4946   -2.6862 H         1 <0>         0.1184
     46 H11         7.2550    0.9150   -1.3195 H         1 <0>         0.0686
     47 H12         6.7041    1.9328    0.0328 H         1 <0>         0.0729
     48 H13         6.8057   -0.0266    1.5490 H         1 <0>         0.0867
     49 H14         7.3566   -1.0445    0.1967 H         1 <0>         0.0741
     50 H15         9.9138    1.9185    1.6781 H         1 <0>         0.0819
     51 H16         8.1851    1.9826    2.0971 H         1 <0>         0.0757
     52 H17         8.4469   -0.0529    3.4888 H         1 <0>         0.0626
     53 H18        10.1757   -0.1170    3.0699 H         1 <0>         0.0647
     54 H19        10.5073    2.1154    4.0971 H         1 <0>         0.0648
     55 H20         8.7786    2.1794    4.5160 H         1 <0>         0.0624
     56 H21         9.0404    0.1440    5.9078 H         1 <0>         0.0620
     57 H22        10.7692    0.0799    5.4888 H         1 <0>         0.0601
     58 H23         9.4095    2.4327    6.8762 H         1 <0>         0.0694
     59 H24        12.3408    1.7493    6.3693 H         1 <0>         0.0598
     60 H25        11.4105    3.0152    5.5326 H         1 <0>         0.0645
     61 H26        12.7600    3.9754    7.3779 H         1 <0>         0.0587
     62 H27        11.0186    4.1584    7.6978 H         1 <0>         0.0604
     63 H28        12.8116    1.9549    8.8144 H         1 <0>         0.0595
     64 H29        12.2165    3.3673    9.7196 H         1 <0>         0.0578
     65 H30        10.8105    1.3724   10.1580 H         1 <0>         0.0588
     66 H31         9.8802    2.6383    9.3213 H         1 <0>         0.0608
     67 H32         9.4610    0.4121    8.3127 H         1 <0>         0.0611
     68 H33        11.2024    0.2292    7.9928 H         1 <0>         0.0599
     69 H34         8.5493   -1.2281   -1.0804 H         1 <0>         0.3968
     70 H35        11.4458   -1.5914   -1.1571 H         1 <0>         0.0858
     71 H36         9.9307   -0.3413   -3.4935 H         1 <0>         0.0624
     72 H37        11.1233    0.4897   -2.4662 H         1 <0>         0.0672
     73 H38        12.1619   -0.3007   -4.5745 H         1 <0>         0.0627
     74 H39        12.8595   -1.1364   -3.1663 H         1 <0>         0.0631
     75 H40        10.6495   -2.2259   -4.9679 H         1 <0>         0.0628
     76 H41        12.3542   -2.7375   -4.9911 H         1 <0>         0.0618
     77 H42        10.9720   -4.3070   -3.6589 H         1 <0>         0.0662
     78 H43        12.1646   -3.4760   -2.6315 H         1 <0>         0.0641
     79 H44         9.9334   -3.5166   -1.5505 H         1 <0>         0.0685
     80 H45         9.2358   -2.6809   -2.9588 H         1 <0>         0.0684
@<TRIPOS>BOND
     1    1    2 1
     2    1   36 1
     3    1   37 1
     4    1   38 1
     5    2    3 1
     6    2    4 1
     7    2    7 1
     8    3   39 1
     9    3   40 1
    10    3   41 1
    11    4    5 2
    12    4    6 1
    13    7    8 1
    14    8   13 ar
    15    8    9 ar
    16    9   10 ar
    17    9   42 1
    18   10   11 ar
    19   10   43 1
    20   11   12 ar
    21   11   14 1
    22   12   13 ar
    23   12   44 1
    24   13   45 1
    25   14   15 1
    26   14   46 1
    27   14   47 1
    28   15   16 1
    29   15   48 1
    30   15   49 1
    31   16   17 1
    32   16   27 am
    33   17   18 1
    34   17   50 1
    35   17   51 1
    36   18   19 1
    37   18   52 1
    38   18   53 1
    39   19   20 1
    40   19   54 1
    41   19   55 1
    42   20   21 1
    43   20   56 1
    44   20   57 1
    45   21   26 1
    46   21   22 1
    47   21   58 1
    48   22   23 1
    49   22   59 1
    50   22   60 1
    51   23   24 1
    52   23   61 1
    53   23   62 1
    54   24   25 1
    55   24   63 1
    56   24   64 1
    57   25   26 1
    58   25   65 1
    59   25   66 1
    60   26   67 1
    61   26   68 1
    62   27   28 2
    63   27   29 am
    64   29   30 1
    65   29   69 1
    66   30   35 1
    67   30   31 1
    68   30   70 1
    69   31   32 1
    70   31   71 1
    71   31   72 1
    72   32   33 1
    73   32   73 1
    74   32   74 1
    75   33   34 1
    76   33   75 1
    77   33   76 1
    78   34   35 1
    79   34   77 1
    80   34   78 1
    81   35   79 1
    82   35   80 1
@<TRIPOS>MOLECULE
ZINC38151177
   72    71     0     0     0
SMALL
USER_CHARGES

@<TRIPOS>ATOM
      1 C1         -0.0187    1.5258    0.0104 C.3       1 <0>        -0.1543
      2 C2          0.0021   -0.0041    0.0020 C.3       1 <0>        -0.1261
      3 C3         -1.4333   -0.5336    0.0129 C.3       1 <0>        -0.1213
      4 C4         -1.4126   -2.0635    0.0045 C.3       1 <0>        -0.1212
      5 C5         -2.8479   -2.5931    0.0153 C.3       1 <0>        -0.1207
      6 C6         -2.8272   -4.1229    0.0069 C.3       1 <0>        -0.1206
      7 C7         -4.2626   -4.6525    0.0178 C.3       1 <0>        -0.1206
      8 C8         -4.2418   -6.1823    0.0094 C.3       1 <0>        -0.1206
      9 C9         -5.6772   -6.7119    0.0202 C.3       1 <0>        -0.1206
     10 C10        -5.6565   -8.2417    0.0118 C.3       1 <0>        -0.1206
     11 C11        -7.0918   -8.7713    0.0227 C.3       1 <0>        -0.1207
     12 C12        -7.0711  -10.3012    0.0143 C.3       1 <0>        -0.1206
     13 C13        -8.5065  -10.8307    0.0251 C.3       1 <0>        -0.1207
     14 C14        -8.4857  -12.3606    0.0167 C.3       1 <0>        -0.1208
     15 C15        -9.9211  -12.8902    0.0276 C.3       1 <0>        -0.1199
     16 C16        -9.9004  -14.4200    0.0191 C.3       1 <0>        -0.1199
     17 C17       -11.3358  -14.9496    0.0300 C.3       1 <0>        -0.1271
     18 C18       -11.3150  -16.4794    0.0216 C.3       1 <0>         0.1170
     19 N1        -12.6894  -16.9865    0.0320 N.pl3     1 <0>        -1.1282
     20 S1        -12.9903  -18.5707   -0.3448 S.o2      1 <0>         2.7908
     21 O1        -14.3935  -18.7581   -0.2211 O.2       1 <0>        -0.9781
     22 O2        -12.2890  -18.8417   -1.5506 O.2       1 <0>        -0.9779
     23 N2        -12.2836  -19.4967    0.8321 N.pl3     1 <0>        -1.1285
     24 C19       -12.7697  -19.4236    2.2122 C.3       1 <0>         0.1165
     25 C20       -12.2277  -20.6130    3.0075 C.3       1 <0>        -0.1313
     26 C21       -12.7354  -20.5367    4.4488 C.3       1 <0>        -0.1534
     27 H1          1.0039    1.9031    0.0027 H         1 <0>         0.0535
     28 H2         -0.5459    1.8868   -0.8726 H         1 <0>         0.0533
     29 H3         -0.5289    1.8773    0.9072 H         1 <0>         0.0533
     30 H4          0.5123   -0.3556   -0.8948 H         1 <0>         0.0603
     31 H5          0.5293   -0.3651    0.8851 H         1 <0>         0.0602
     32 H6         -1.9435   -0.1821    0.9097 H         1 <0>         0.0605
     33 H7         -1.9605   -0.1726   -0.8702 H         1 <0>         0.0605
     34 H8         -0.9024   -2.4150   -0.8923 H         1 <0>         0.0605
     35 H9         -0.8854   -2.4246    0.8875 H         1 <0>         0.0605
     36 H10        -3.3581   -2.2415    0.9121 H         1 <0>         0.0604
     37 H11        -3.3751   -2.2320   -0.8677 H         1 <0>         0.0604
     38 H12        -2.3170   -4.4744   -0.8899 H         1 <0>         0.0604
     39 H13        -2.3000   -4.4840    0.8900 H         1 <0>         0.0603
     40 H14        -4.7728   -4.3010    0.9146 H         1 <0>         0.0603
     41 H15        -4.7898   -4.2914   -0.8653 H         1 <0>         0.0604
     42 H16        -3.7316   -6.5338   -0.8874 H         1 <0>         0.0604
     43 H17        -3.7146   -6.5434    0.8924 H         1 <0>         0.0603
     44 H18        -6.1874   -6.3604    0.9170 H         1 <0>         0.0602
     45 H19        -6.2044   -6.3508   -0.8628 H         1 <0>         0.0603
     46 H20        -5.1463   -8.5933   -0.8850 H         1 <0>         0.0604
     47 H21        -5.1293   -8.6028    0.8949 H         1 <0>         0.0602
     48 H22        -7.6020   -8.4198    0.9195 H         1 <0>         0.0602
     49 H23        -7.6190   -8.4102   -0.8604 H         1 <0>         0.0604
     50 H24        -6.5609  -10.6527   -0.8825 H         1 <0>         0.0606
     51 H25        -6.5439  -10.6622    0.8973 H         1 <0>         0.0603
     52 H26        -9.0167  -10.4792    0.9219 H         1 <0>         0.0604
     53 H27        -9.0337  -10.4697   -0.8579 H         1 <0>         0.0607
     54 H28        -7.9755  -12.7121   -0.8801 H         1 <0>         0.0616
     55 H29        -7.9586  -12.7217    0.8998 H         1 <0>         0.0610
     56 H30       -10.4313  -12.5386    0.9244 H         1 <0>         0.0618
     57 H31       -10.4483  -12.5291   -0.8555 H         1 <0>         0.0624
     58 H32        -9.3902  -14.7715   -0.8776 H         1 <0>         0.0664
     59 H33        -9.3732  -14.7811    0.9022 H         1 <0>         0.0650
     60 H34       -11.8459  -14.5981    0.9268 H         1 <0>         0.0700
     61 H35       -11.8629  -14.5885   -0.8531 H         1 <0>         0.0721
     62 H36       -10.8048  -16.8309   -0.8752 H         1 <0>         0.0789
     63 H37       -10.7878  -16.8405    0.9047 H         1 <0>         0.0643
     64 H38       -13.4232  -16.3943    0.2596 H         1 <0>         0.4173
     65 H39       -11.5477  -20.0876    0.6078 H         1 <0>         0.4173
     66 H40       -12.4279  -18.4950    2.6691 H         1 <0>         0.0645
     67 H41       -13.8594  -19.4506    2.2155 H         1 <0>         0.0789
     68 H42       -12.5696  -21.5417    2.5506 H         1 <0>         0.0716
     69 H43       -11.1380  -20.5861    3.0042 H         1 <0>         0.0695
     70 H44       -12.3493  -21.3840    5.0154 H         1 <0>         0.0611
     71 H45       -12.3936  -19.6080    4.9057 H         1 <0>         0.0575
     72 H46       -13.8251  -20.5636    4.4521 H         1 <0>         0.0590
@<TRIPOS>BOND
     1    1    2 1
     2    1   27 1
     3    1   28 1
     4    1   29 1
     5    2    3 1
     6    2   30 1
     7    2   31 1
     8    3    4 1
     9    3   32 1
    10    3   33 1
    11    4    5 1
    12    4   34 1
    13    4   35 1
    14    5    6 1
    15    5   36 1
    16    5   37 1
    17    6    7 1
    18    6   38 1
    19    6   39 1
    20    7    8 1
    21    7   40 1
    22    7   41 1
    23    8    9 1
    24    8   42 1
    25    8   43 1
    26    9   10 1
    27    9   44 1
    28    9   45 1
    29   10   11 1
    30   10   46 1
    31   10   47 1
    32   11   12 1
    33   11   48 1
    34   11   49 1
    35   12   13 1
    36   12   50 1
    37   12   51 1
    38   13   14 1
    39   13   52 1
    40   13   53 1
    41   14   15 1
    42   14   54 1
    43   14   55 1
    44   15   16 1
    45   15   56 1
    46   15   57 1
    47   16   17 1
    48   16   58 1
    49   16   59 1
    50   17   18 1
    51   17   60 1
    52   17   61 1
    53   18   19 1
    54   18   62 1
    55   18   63 1
    56   19   20 1
    57   19   64 1
    58   20   21 2
    59   20   22 2
    60   20   23 1
    61   23   24 1
    62   23   65 1
    63   24   25 1
    64   24   66 1
    65   24   67 1
    66   25   26 1
    67   25   68 1
    68   25   69 1
    69   26   70 1
    70   26   71 1
    71   26   72 1
@<TRIPOS>MOLECULE
ZINC16052349
   53    55     0     0     0
SMALL
USER_CHARGES
2-methyl-2-[4-[[[4-methyl-2-[4-(trifluoromethyl)phenyl]thiazole-5-carbonyl]amino]methyl]phenoxy]propanoic acid
@<TRIPOS>ATOM
      1 C1          1.3869    8.1350    3.4861 C.3       1 <0>        -0.0895
      2 C2          1.3452    6.8789    4.3176 C.2       1 <0>         0.1450
      3 C3          1.3321    5.6240    3.7220 C.2       1 <0>        -0.2586
      4 S1          1.2760    4.5750    5.1679 S.3       1 <0>         0.1405
      5 C4          1.2842    5.8352    6.3626 C.2       1 <0>         0.1146
      6 N1          1.3206    6.9340    5.6215 N.2       1 <0>        -0.5012
      7 C5          1.2527    5.7135    7.8352 C.ar      1 <0>         0.0159
      8 C6          1.2097    4.4532    8.4338 C.ar      1 <0>        -0.0930
      9 C7          1.1863    4.3467    9.8090 C.ar      1 <0>        -0.0650
     10 C8          1.1939    5.4857   10.5945 C.ar      1 <0>        -0.1682
     11 C9          1.2307    6.7381   10.0075 C.ar      1 <0>        -0.0703
     12 C10         1.2602    6.8586    8.6335 C.ar      1 <0>        -0.0704
     13 C11         1.1614    5.3617   12.0960 C.3       1 <0>         0.5086
     14 F1         -0.1672    5.3497   12.5343 F         1 <0>        -0.1744
     15 F2          1.7896    4.1719   12.4794 F         1 <0>        -0.1741
     16 F3          1.8314    6.4483   12.6683 F         1 <0>        -0.1754
     17 C12         1.3522    5.2611    2.3019 C.2       1 <0>         0.6073
     18 O1          1.3855    6.1315    1.4518 O.2       1 <0>        -0.5224
     19 N2          1.3338    3.9637    1.9375 N.am      1 <0>        -0.7133
     20 C13         1.3539    3.6010    0.5183 C.3       1 <0>         0.1755
     21 C14         1.3272    2.1004    0.3828 C.ar      1 <0>        -0.1745
     22 C15         0.1173    1.4365    0.2979 C.ar      1 <0>        -0.0702
     23 C16         0.0901    0.0609    0.1737 C.ar      1 <0>        -0.1717
     24 C17         1.2782   -0.6544    0.1342 C.ar      1 <0>         0.1781
     25 C18         2.4908    0.0140    0.2196 C.ar      1 <0>        -0.1685
     26 C19         2.5126    1.3897    0.3437 C.ar      1 <0>        -0.0699
     27 O2          1.2541   -2.0078    0.0126 O.3       1 <0>        -0.3016
     28 C20         2.5117   -2.6673   -0.1469 C.3       1 <0>         0.0567
     29 C21         2.2821   -4.1716   -0.3064 C.3       1 <0>        -0.1164
     30 C22         3.2181   -2.1245   -1.3908 C.3       1 <0>        -0.1767
     31 C23         3.3683   -2.4158    1.0672 C.2       1 <0>         0.4491
     32 O3          2.9453   -1.7410    1.9758 O.co2     1 <0>        -0.6148
     33 H1          0.3698    8.4583    3.2650 H         1 <0>         0.0812
     34 H2          1.9056    8.9190    4.0379 H         1 <0>         0.0749
     35 H3          1.9157    7.9362    2.5539 H         1 <0>         0.0977
     36 H4          1.1989    3.5635    7.8217 H         1 <0>         0.1430
     37 H5          1.1572    3.3721   10.2735 H         1 <0>         0.1474
     38 H6          1.2368    7.6232   10.6263 H         1 <0>         0.1451
     39 H7          1.2886    7.8368    8.1765 H         1 <0>         0.1497
     40 H8          1.3073    3.2700    2.6150 H         1 <0>         0.4032
     41 H9          2.2607    3.9914    0.0563 H         1 <0>         0.0763
     42 H10         0.4814    4.0262    0.0222 H         1 <0>         0.0764
     43 H11        -0.8071    1.9942    0.3241 H         1 <0>         0.1211
     44 H12        -0.8551   -0.4572    0.1071 H         1 <0>         0.1243
     45 H13         3.4170   -0.5407    0.1895 H         1 <0>         0.1432
     46 H14         3.4564    1.9106    0.4098 H         1 <0>         0.1178
     47 H15         1.7356   -4.3597   -1.2305 H         1 <0>         0.0538
     48 H16         3.2434   -4.6841   -0.3419 H         1 <0>         0.0834
     49 H17         1.7037   -4.5425    0.5398 H         1 <0>         0.0580
     50 H18         3.2643   -1.0368   -1.3368 H         1 <0>         0.0700
     51 H19         4.2290   -2.5291   -1.4402 H         1 <0>         0.0801
     52 H20         2.6642   -2.4209   -2.2816 H         1 <0>         0.0544
     53 O4          4.6013   -2.9415    1.1391 O.co2     1 <0>        -0.7518
@<TRIPOS>BOND
     1    1    2 1
     2    1   33 1
     3    1   34 1
     4    1   35 1
     5    2    6 1
     6    2    3 2
     7    3    4 1
     8    3   17 1
     9    4    5 1
    10    5    6 2
    11    5    7 1
    12    7   12 ar
    13    7    8 ar
    14    8    9 ar
    15    8   36 1
    16    9   10 ar
    17    9   37 1
    18   10   11 ar
    19   10   13 1
    20   11   12 ar
    21   11   38 1
    22   12   39 1
    23   13   14 1
    24   13   15 1
    25   13   16 1
    26   17   18 2
    27   17   19 am
    28   19   20 1
    29   19   40 1
    30   20   21 1
    31   20   41 1
    32   20   42 1
    33   21   26 ar
    34   21   22 ar
    35   22   23 ar
    36   22   43 1
    37   23   24 ar
    38   23   44 1
    39   24   25 ar
    40   24   27 1
    41   25   26 ar
    42   25   45 1
    43   26   46 1
    44   27   28 1
    45   28   29 1
    46   28   30 1
    47   28   31 1
    48   29   47 1
    49   29   48 1
    50   29   49 1
    51   30   50 1
    52   30   51 1
    53   30   52 1
    54   31   32 2
    55   31   53 1
@<TRIPOS>MOLECULE
ZINC01486389
   47    49     0     0     0
SMALL
USER_CHARGES
5-[[(5S)-2,4-dioxothiazolidin-5-yl]methyl]-2-methoxy-N-[[4-(trifluoromethyl)phenyl]methyl]benzamide
@<TRIPOS>ATOM
      1 C1          3.5380    3.0922   -0.0151 C.3       1 <0>         0.0188
      2 O1          2.3309    3.8568    0.0010 O.3       1 <0>        -0.2796
      3 C2          1.1639    3.1653    0.0084 C.ar      1 <0>         0.1950
      4 C3          1.1759    1.7783    0.0004 C.ar      1 <0>        -0.2160
      5 C4         -0.0126    1.0758    0.0080 C.ar      1 <0>        -0.0300
      6 C5         -1.2240    1.7481    0.0174 C.ar      1 <0>        -0.1455
      7 C6         -1.2546    3.1255    0.0308 C.ar      1 <0>        -0.0353
      8 C7         -0.0593    3.8489    0.0238 C.ar      1 <0>        -0.1743
      9 C8         -0.0848    5.3240    0.0319 C.2       1 <0>         0.5624
     10 O2          0.9575    5.9501    0.0253 O.2       1 <0>        -0.5125
     11 N1         -1.2634    5.9776    0.0467 N.am      1 <0>        -0.7288
     12 C9         -1.2887    7.4423    0.0548 C.3       1 <0>         0.1595
     13 C10        -2.7179    7.9200    0.0710 C.ar      1 <0>        -0.0784
     14 C11        -3.3830    8.1509   -1.1186 C.ar      1 <0>        -0.1005
     15 C12        -4.6956    8.5844   -1.1038 C.ar      1 <0>        -0.0705
     16 C13        -5.3396    8.7971    0.1007 C.ar      1 <0>        -0.1742
     17 C14        -4.6728    8.5712    1.2904 C.ar      1 <0>        -0.0707
     18 C15        -3.3620    8.1326    1.2755 C.ar      1 <0>        -0.1007
     19 C16        -6.7685    9.2756    0.1169 C.3       1 <0>         0.5069
     20 F1         -6.7918   10.6744    0.1247 F         1 <0>        -0.1748
     21 F2         -7.4311    8.8045   -1.0216 F         1 <0>        -0.1757
     22 F3         -7.4093    8.7922    1.2628 F         1 <0>        -0.1758
     23 C17        -2.5141    0.9691    0.0193 C.3       1 <0>        -0.0491
     24 C18        -2.9438    0.6977    1.4624 C.3       1 <0>        -0.0757
     25 H1         -3.0690    1.6276    2.0171 H         1 <0>         0.1616
     26 C19        -4.2049   -0.1529    1.5138 C.2       1 <0>         0.5302
     27 O3         -5.2601    0.2242    1.0510 O.2       1 <0>        -0.4564
     28 N2         -4.0704   -1.3314    2.0984 N.am      1 <0>        -0.6898
     29 C20        -2.9096   -1.7705    2.6193 C.2       1 <0>         0.5607
     30 O4         -2.6896   -2.8305    3.1726 O.2       1 <0>        -0.4155
     31 S1         -1.7677   -0.4320    2.3086 S.3       1 <0>        -0.1402
     32 H2          4.3948    3.7659   -0.0196 H         1 <0>         0.1052
     33 H3          3.5786    2.4586    0.8709 H         1 <0>         0.0589
     34 H4          3.5613    2.4688   -0.9090 H         1 <0>         0.0585
     35 H5          2.1162    1.2471   -0.0114 H         1 <0>         0.1397
     36 H6          0.0021   -0.0041    0.0020 H         1 <0>         0.1373
     37 H7         -2.2012    3.6453    0.0426 H         1 <0>         0.1337
     38 H8         -2.0949    5.4781    0.0519 H         1 <0>         0.3994
     39 H9         -0.7728    7.8097    0.9419 H         1 <0>         0.0833
     40 H10        -0.7897    7.8193   -0.8380 H         1 <0>         0.0833
     41 H11        -2.8784    7.9890   -2.0597 H         1 <0>         0.1387
     42 H12        -5.2164    8.7613   -2.0332 H         1 <0>         0.1396
     43 H13        -5.1759    8.7376    2.2314 H         1 <0>         0.1394
     44 H14        -2.8409    7.9565    2.2050 H         1 <0>         0.1386
     45 H15        -3.2876    1.5460   -0.4877 H         1 <0>         0.1076
     46 H16        -2.3676    0.0222   -0.5004 H         1 <0>         0.0927
     47 H17        -4.8480   -1.9086    2.1550 H         1 <0>         0.4191
@<TRIPOS>BOND
     1    1    2 1
     2    1   32 1
     3    1   33 1
     4    1   34 1
     5    2    3 1
     6    3    8 ar
     7    3    4 ar
     8    4    5 ar
     9    4   35 1
    10    5    6 ar
    11    5   36 1
    12    6    7 ar
    13    6   23 1
    14    7    8 ar
    15    7   37 1
    16    8    9 1
    17    9   10 2
    18    9   11 am
    19   11   12 1
    20   11   38 1
    21   12   13 1
    22   12   39 1
    23   12   40 1
    24   13   18 ar
    25   13   14 ar
    26   14   15 ar
    27   14   41 1
    28   15   16 ar
    29   15   42 1
    30   16   17 ar
    31   16   19 1
    32   17   18 ar
    33   17   43 1
    34   18   44 1
    35   19   20 1
    36   19   21 1
    37   19   22 1
    38   23   24 1
    39   23   45 1
    40   23   46 1
    41   24   25 1
    42   24   31 1
    43   24   26 1
    44   26   27 2
    45   26   28 am
    46   28   29 am
    47   28   47 1
    48   29   30 2
    49   29   31 1
@<TRIPOS>MOLECULE
ZINC03929313
   47    49     0     0     0
SMALL
USER_CHARGES
5-[(2,4-dioxothiazolidin-5-yl)methyl]-2-methoxy-N-[[4-(trifluoromethyl)phenyl]methyl]benzamide
@<TRIPOS>ATOM
      1 C1         -0.9150   -6.4616    1.8342 C.3       1 <0>         0.0188
      2 O1          0.3520   -6.2399    1.2115 O.3       1 <0>        -0.2796
      3 C2          0.8265   -4.9691    1.2161 C.ar      1 <0>         0.1950
      4 C3          0.0903   -3.9526    1.8066 C.ar      1 <0>        -0.2161
      5 C4          0.5767   -2.6606    1.8147 C.ar      1 <0>        -0.0298
      6 C5          1.7958   -2.3670    1.2256 C.ar      1 <0>        -0.1456
      7 C6          2.5404   -3.3644    0.6344 C.ar      1 <0>        -0.0352
      8 C7          2.0625   -4.6771    0.6237 C.ar      1 <0>        -0.1743
      9 C8          2.8544   -5.7498   -0.0079 C.2       1 <0>         0.5624
     10 O2          2.4352   -6.8911   -0.0152 O.2       1 <0>        -0.5125
     11 N1          4.0425   -5.4646   -0.5768 N.am      1 <0>        -0.7288
     12 C9          4.8288   -6.5298   -1.2040 C.3       1 <0>         0.1595
     13 C10         6.1043   -5.9514   -1.7604 C.ar      1 <0>        -0.0784
     14 C11         6.1414   -5.4829   -3.0604 C.ar      1 <0>        -0.1007
     15 C12         7.3101   -4.9479   -3.5692 C.ar      1 <0>        -0.0707
     16 C13         8.4446   -4.8912   -2.7815 C.ar      1 <0>        -0.1742
     17 C14         8.4089   -5.3645   -1.4832 C.ar      1 <0>        -0.0705
     18 C15         7.2388   -5.8947   -0.9727 C.ar      1 <0>        -0.1005
     19 C16         9.7203   -4.3137   -3.3382 C.3       1 <0>         0.5069
     20 F1         10.4706   -5.3314   -3.9370 F         1 <0>        -0.1748
     21 F2          9.4131   -3.3378   -4.2924 F         1 <0>        -0.1758
     22 F3         10.4617   -3.7357   -2.3021 F         1 <0>        -0.1757
     23 C17         2.3127   -0.9515    1.2368 C.3       1 <0>        -0.0490
     24 C18         1.8264   -0.2210   -0.0166 C.3       1 <0>        -0.0756
     25 H1          2.1558   -0.7310   -0.9218 H         1 <0>         0.1615
     26 C19         2.2623    1.2372   -0.0129 C.2       1 <0>         0.5302
     27 O3          3.4296    1.5646   -0.0219 O.2       1 <0>        -0.4565
     28 N2          1.2801    2.1226    0.0012 N.am      1 <0>        -0.6898
     29 C20        -0.0222    1.7825    0.0118 C.2       1 <0>         0.5608
     30 O4         -0.9893    2.5190    0.0207 O.2       1 <0>        -0.4154
     31 S1          0.0021   -0.0041    0.0020 S.3       1 <0>        -0.1404
     32 H2         -1.6758   -5.8631    1.3331 H         1 <0>         0.0589
     33 H3         -1.1763   -7.5172    1.7604 H         1 <0>         0.1052
     34 H4         -0.8592   -6.1735    2.8839 H         1 <0>         0.0585
     35 H5         -0.8627   -4.1730    2.2646 H         1 <0>         0.1397
     36 H6          0.0018   -1.8735    2.2797 H         1 <0>         0.1372
     37 H7          3.4922   -3.1316    0.1803 H         1 <0>         0.1337
     38 H8          4.3769   -4.5541   -0.5710 H         1 <0>         0.3994
     39 H9          5.0685   -7.2902   -0.4608 H         1 <0>         0.0833
     40 H10         4.2515   -6.9802   -2.0115 H         1 <0>         0.0833
     41 H11         5.2562   -5.5313   -3.6773 H         1 <0>         0.1386
     42 H12         7.3380   -4.5784   -4.5837 H         1 <0>         0.1395
     43 H13         9.2954   -5.3205   -0.8679 H         1 <0>         0.1396
     44 H14         7.2111   -6.2648    0.0415 H         1 <0>         0.1387
     45 H15         3.4025   -0.9628    1.2508 H         1 <0>         0.1075
     46 H16         1.9432   -0.4367    2.1237 H         1 <0>         0.0927
     47 H17         1.5098    3.0650    0.0038 H         1 <0>         0.4191
@<TRIPOS>BOND
     1    1    2 1
     2    1   32 1
     3    1   33 1
     4    1   34 1
     5    2    3 1
     6    3    8 ar
     7    3    4 ar
     8    4    5 ar
     9    4   35 1
    10    5    6 ar
    11    5   36 1
    12    6    7 ar
    13    6   23 1
    14    7    8 ar
    15    7   37 1
    16    8    9 1
    17    9   10 2
    18    9   11 am
    19   11   12 1
    20   11   38 1
    21   12   13 1
    22   12   39 1
    23   12   40 1
    24   13   18 ar
    25   13   14 ar
    26   14   15 ar
    27   14   41 1
    28   15   16 ar
    29   15   42 1
    30   16   17 ar
    31   16   19 1
    32   17   18 ar
    33   17   43 1
    34   18   44 1
    35   19   20 1
    36   19   21 1
    37   19   22 1
    38   23   24 1
    39   23   45 1
    40   23   46 1
    41   24   25 1
    42   24   31 1
    43   24   26 1
    44   26   27 2
    45   26   28 am
    46   28   29 am
    47   28   47 1
    48   29   30 2
    49   29   31 1
@<TRIPOS>MOLECULE
ZINC01550501
   60    63     0     0     0
SMALL
USER_CHARGES
2-methyl-2-[4-[2-[5-methyl-2-(4-phenylphenyl)-oxazol-4-yl]ethoxy]phenoxy]-propanoic acid
@<TRIPOS>ATOM
      1 C1          4.1614   -4.6859   -3.4096 C.3       1 <0>        -0.0735
      2 C2          4.6388   -4.9925   -2.0135 C.2       1 <0>        -0.0292
      3 C3          3.9660   -4.7608   -0.8714 C.2       1 <0>        -0.0063
      4 N1          4.7304   -5.1797    0.1482 N.2       1 <0>        -0.4569
      5 C4          5.8532   -5.6560   -0.3371 C.2       1 <0>         0.2250
      6 O1          5.8202   -5.5471   -1.6768 O.3       1 <0>        -0.1932
      7 C5          6.9663   -6.2170    0.4556 C.ar      1 <0>        -0.0126
      8 C6          6.8766   -6.2670    1.8487 C.ar      1 <0>        -0.0660
      9 C7          7.9128   -6.7941    2.5863 C.ar      1 <0>        -0.1115
     10 C8          9.0560   -7.2692    1.9435 C.ar      1 <0>        -0.0284
     11 C9          9.1488   -7.2149    0.5527 C.ar      1 <0>        -0.1117
     12 C10         8.1118   -6.6927   -0.1871 C.ar      1 <0>        -0.0857
     13 C11        10.1735   -7.8319    2.7392 C.ar      1 <0>        -0.0494
     14 C12        11.3152   -8.3124    2.0998 C.ar      1 <0>        -0.1081
     15 C13        12.3541   -8.8306    2.8458 C.ar      1 <0>        -0.1187
     16 C14        12.2598   -8.8834    4.2249 C.ar      1 <0>        -0.1172
     17 C15        11.1271   -8.4128    4.8646 C.ar      1 <0>        -0.1181
     18 C16        10.0841   -7.8876    4.1292 C.ar      1 <0>        -0.1074
     19 C17         2.5948   -4.1460   -0.7584 C.3       1 <0>        -0.0329
     20 C18         2.7260   -2.6272   -0.6285 C.3       1 <0>         0.0681
     21 O2          1.4258   -2.0442   -0.5213 O.3       1 <0>        -0.3192
     22 C19         1.3640   -0.6913   -0.3981 C.ar      1 <0>         0.0755
     23 C20         0.1337   -0.0603   -0.2895 C.ar      1 <0>        -0.1223
     24 C21         0.0710    1.3139   -0.1643 C.ar      1 <0>        -0.1314
     25 C22         1.2383    2.0627   -0.1472 C.ar      1 <0>         0.1317
     26 C23         2.4687    1.4316   -0.2552 C.ar      1 <0>        -0.1274
     27 C24         2.5314    0.0574   -0.3804 C.ar      1 <0>        -0.1744
     28 O3          1.1766    3.4156   -0.0244 O.3       1 <0>        -0.3036
     29 C25         2.4170    4.1119    0.1116 C.3       1 <0>         0.0581
     30 C26         2.1461    5.6088    0.2758 C.3       1 <0>        -0.1155
     31 C27         3.1623    3.5906    1.3418 C.3       1 <0>        -0.1761
     32 C28         3.2576    3.8855   -1.1184 C.2       1 <0>         0.4480
     33 O4          2.8377    3.1983   -2.0191 O.co2     1 <0>        -0.6144
     34 H1          4.4702   -3.6778   -3.6861 H         1 <0>         0.0908
     35 H2          4.5945   -5.4027   -4.1073 H         1 <0>         0.0805
     36 H3          3.0742   -4.7555   -3.4453 H         1 <0>         0.0968
     37 H4          5.9931   -5.8957    2.3468 H         1 <0>         0.1422
     38 H5          7.8422   -6.8359    3.6631 H         1 <0>         0.1352
     39 H6         10.0343   -7.5831    0.0560 H         1 <0>         0.1334
     40 H7          8.1840   -6.6505   -1.2638 H         1 <0>         0.1335
     41 H8         11.3880   -8.2759    1.0229 H         1 <0>         0.1266
     42 H9         13.2410   -9.1992    2.3518 H         1 <0>         0.1247
     43 H10        13.0735   -9.2939    4.8045 H         1 <0>         0.1228
     44 H11        11.0588   -8.4568    5.9415 H         1 <0>         0.1251
     45 H12         9.2001   -7.5208    4.6296 H         1 <0>         0.1275
     46 H13         2.0898   -4.5436    0.1219 H         1 <0>         0.0929
     47 H14         2.0145   -4.3857   -1.6494 H         1 <0>         0.0917
     48 H15         3.2310   -2.2295   -1.5088 H         1 <0>         0.0601
     49 H16         3.3062   -2.3875    0.2625 H         1 <0>         0.0622
     50 H17        -0.7753   -0.6434   -0.3026 H         1 <0>         0.1282
     51 H18        -0.8872    1.8057   -0.0843 H         1 <0>         0.1294
     52 H19         3.3777    2.0147   -0.2418 H         1 <0>         0.1426
     53 H20         3.4894   -0.4340   -0.4642 H         1 <0>         0.1193
     54 H21         1.6118    5.7810    1.2101 H         1 <0>         0.0532
     55 H22         3.0924    6.1495    0.2934 H         1 <0>         0.0819
     56 H23         1.5412    5.9623   -0.5592 H         1 <0>         0.0576
     57 H24         3.2393    2.5047    1.2869 H         1 <0>         0.0683
     58 H25         4.1617    4.0246    1.3721 H         1 <0>         0.0784
     59 H26         2.6170    3.8710    2.2430 H         1 <0>         0.0542
     60 O5          4.4730    4.4472   -1.2135 O.co2     1 <0>        -0.7549
@<TRIPOS>BOND
     1    1    2 1
     2    1   34 1
     3    1   35 1
     4    1   36 1
     5    2    6 1
     6    2    3 2
     7    3    4 1
     8    3   19 1
     9    4    5 2
    10    5    6 1
    11    5    7 1
    12    7   12 ar
    13    7    8 ar
    14    8    9 ar
    15    8   37 1
    16    9   10 ar
    17    9   38 1
    18   10   11 ar
    19   10   13 1
    20   11   12 ar
    21   11   39 1
    22   12   40 1
    23   13   18 ar
    24   13   14 ar
    25   14   15 ar
    26   14   41 1
    27   15   16 ar
    28   15   42 1
    29   16   17 ar
    30   16   43 1
    31   17   18 ar
    32   17   44 1
    33   18   45 1
    34   19   20 1
    35   19   46 1
    36   19   47 1
    37   20   21 1
    38   20   48 1
    39   20   49 1
    40   21   22 1
    41   22   27 ar
    42   22   23 ar
    43   23   24 ar
    44   23   50 1
    45   24   25 ar
    46   24   51 1
    47   25   26 ar
    48   25   28 1
    49   26   27 ar
    50   26   52 1
    51   27   53 1
    52   28   29 1
    53   29   30 1
    54   29   31 1
    55   29   32 1
    56   30   54 1
    57   30   55 1
    58   30   56 1
    59   31   57 1
    60   31   58 1
    61   31   59 1
    62   32   33 2
    63   32   60 1
@<TRIPOS>MOLECULE
ZINC14115100
   67    68     0     0     0
SMALL
USER_CHARGES
2-[4-[2-[(2,4-difluorophenyl)carbamoyl-heptyl-amino]ethyl]phenyl]sulfanyl-2-methyl-propanoic acid
@<TRIPOS>ATOM
      1 C1         -3.2763    9.6479   -4.4636 C.3       1 <0>        -0.1540
      2 C2         -3.2631    8.1180   -4.4701 C.3       1 <0>        -0.1263
      3 C3         -3.3770    7.6010   -3.0346 C.3       1 <0>        -0.1208
      4 C4         -3.3638    6.0710   -3.0410 C.3       1 <0>        -0.1200
      5 C5         -3.4776    5.5540   -1.6055 C.3       1 <0>        -0.1184
      6 C6         -3.4644    4.0241   -1.6120 C.3       1 <0>        -0.1408
      7 C7         -3.5783    3.5070   -0.1765 C.3       1 <0>         0.1039
      8 N1         -3.5657    2.0421   -0.1826 N.am      1 <0>        -0.6181
      9 C8         -4.8238    1.2992   -0.2897 C.3       1 <0>         0.1373
     10 C9         -5.3800    1.0335    1.1106 C.3       1 <0>        -0.0930
     11 C10        -6.6741    0.2693    1.0004 C.ar      1 <0>        -0.0744
     12 C11        -7.8732    0.9525    0.9109 C.ar      1 <0>        -0.1263
     13 C12        -9.0606    0.2557    0.8041 C.ar      1 <0>        -0.0745
     14 C13        -9.0505   -1.1340    0.7981 C.ar      1 <0>        -0.1107
     15 C14        -7.8441   -1.8173    0.8939 C.ar      1 <0>        -0.0724
     16 C15        -6.6603   -1.1137    0.9947 C.ar      1 <0>        -0.1215
     17 S1        -10.5636   -2.0276    0.6686 S.3       1 <0>        -0.1222
     18 C16       -11.1603   -2.1302    2.3786 C.3       1 <0>        -0.0783
     19 C17       -10.1880   -2.9709    3.2085 C.3       1 <0>        -0.1213
     20 C18       -11.2525   -0.7229    2.9719 C.3       1 <0>        -0.1228
     21 C19       -12.5230   -2.7734    2.3974 C.2       1 <0>         0.4904
     22 O1        -13.0387   -3.1265    1.3633 O.co2     1 <0>        -0.6162
     23 C20        -2.3966    1.3779   -0.0897 C.2       1 <0>         0.7080
     24 O2         -2.3861    0.1620   -0.0948 O.2       1 <0>        -0.5628
     25 N2         -1.2392    2.0614    0.0088 N.am      1 <0>        -0.6805
     26 C21        -0.0164    1.3761   -0.0139 C.ar      1 <0>         0.1349
     27 C22         0.0735    0.1352   -0.6286 C.ar      1 <0>        -0.0774
     28 C23         1.2807   -0.5362   -0.6551 C.ar      1 <0>        -0.1359
     29 C24         2.4016    0.0276   -0.0694 C.ar      1 <0>         0.1054
     30 C25         2.3157    1.2653    0.5452 C.ar      1 <0>        -0.1674
     31 C26         1.1094    1.9412    0.5742 C.ar      1 <0>         0.0905
     32 F1          1.0253    3.1494    1.1731 F         1 <0>        -0.1311
     33 F2          3.5807   -0.6311   -0.0974 F         1 <0>        -0.1323
     34 H1         -4.2085   10.0014   -4.0230 H         1 <0>         0.0537
     35 H2         -2.4346   10.0161   -3.8770 H         1 <0>         0.0529
     36 H3         -3.1952   10.0163   -5.4863 H         1 <0>         0.0529
     37 H4         -2.3309    7.7645   -4.9107 H         1 <0>         0.0599
     38 H5         -4.1048    7.7499   -5.0567 H         1 <0>         0.0609
     39 H6         -4.3092    7.9544   -2.5939 H         1 <0>         0.0619
     40 H7         -2.5353    7.9691   -2.4480 H         1 <0>         0.0606
     41 H8         -2.4316    5.7176   -3.4816 H         1 <0>         0.0608
     42 H9         -4.2055    5.7029   -3.6276 H         1 <0>         0.0628
     43 H10        -4.4098    5.9075   -1.1649 H         1 <0>         0.0666
     44 H11        -2.6359    5.9221   -1.0189 H         1 <0>         0.0632
     45 H12        -2.5322    3.6706   -2.0526 H         1 <0>         0.0646
     46 H13        -4.3062    3.6559   -2.1986 H         1 <0>         0.0727
     47 H14        -4.5105    3.8605    0.2642 H         1 <0>         0.0902
     48 H15        -2.7366    3.8752    0.4101 H         1 <0>         0.0718
     49 H16        -5.5438    1.8845   -0.8617 H         1 <0>         0.0837
     50 H17        -4.6435    0.3504   -0.7952 H         1 <0>         0.0912
     51 H18        -4.6599    0.4482    1.6825 H         1 <0>         0.0767
     52 H19        -5.5602    1.9823    1.6160 H         1 <0>         0.0716
     53 H20        -7.8806    2.0325    0.9200 H         1 <0>         0.1202
     54 H21        -9.9962    0.7899    0.7297 H         1 <0>         0.1282
     55 H22        -7.8326   -2.8972    0.8899 H         1 <0>         0.1287
     56 H23        -5.7223   -1.6440    1.0689 H         1 <0>         0.1231
     57 H24        -9.2266   -2.4607    3.2687 H         1 <0>         0.0432
     58 H25       -10.5906   -3.1069    4.2122 H         1 <0>         0.0696
     59 H26       -10.0541   -3.9438    2.7358 H         1 <0>         0.0576
     60 H27       -12.0092   -0.1510    2.4349 H         1 <0>         0.0571
     61 H28       -11.5267   -0.7897    4.0247 H         1 <0>         0.0676
     62 H29       -10.2871   -0.2254    2.8788 H         1 <0>         0.0458
     63 H30        -1.2523    3.0274    0.0955 H         1 <0>         0.4108
     64 H31        -0.7998   -0.3054   -1.0864 H         1 <0>         0.1692
     65 H32         1.3502   -1.5020   -1.1336 H         1 <0>         0.1472
     66 H33         3.1911    1.7034    1.0014 H         1 <0>         0.1517
     67 O3        -13.1638   -2.9542    3.5629 O.co2     1 <0>        -0.7496
@<TRIPOS>BOND
     1    1    2 1
     2    1   34 1
     3    1   35 1
     4    1   36 1
     5    2    3 1
     6    2   37 1
     7    2   38 1
     8    3    4 1
     9    3   39 1
    10    3   40 1
    11    4    5 1
    12    4   41 1
    13    4   42 1
    14    5    6 1
    15    5   43 1
    16    5   44 1
    17    6    7 1
    18    6   45 1
    19    6   46 1
    20    7    8 1
    21    7   47 1
    22    7   48 1
    23    8    9 1
    24    8   23 am
    25    9   10 1
    26    9   49 1
    27    9   50 1
    28   10   11 1
    29   10   51 1
    30   10   52 1
    31   11   16 ar
    32   11   12 ar
    33   12   13 ar
    34   12   53 1
    35   13   14 ar
    36   13   54 1
    37   14   15 ar
    38   14   17 1
    39   15   16 ar
    40   15   55 1
    41   16   56 1
    42   17   18 1
    43   18   19 1
    44   18   20 1
    45   18   21 1
    46   19   57 1
    47   19   58 1
    48   19   59 1
    49   20   60 1
    50   20   61 1
    51   20   62 1
    52   21   22 2
    53   21   67 1
    54   23   24 2
    55   23   25 am
    56   25   26 1
    57   25   63 1
    58   26   31 ar
    59   26   27 ar
    60   27   28 ar
    61   27   64 1
    62   28   29 ar
    63   28   65 1
    64   29   30 ar
    65   29   33 1
    66   30   31 ar
    67   30   66 1
    68   31   32 1
@<TRIPOS>MOLECULE
ZINC08034993
   62    61     0     0     0
SMALL
USER_CHARGES
N-(2-hydroxyethyl)octadec-9-enamide
@<TRIPOS>ATOM
      1 C1          0.0625    2.5023   -8.6169 C.3       1 <0>        -0.1543
      2 C2          0.6195    1.7877   -7.3840 C.3       1 <0>        -0.1260
      3 C3         -0.1205    2.2727   -6.1358 C.3       1 <0>        -0.1214
      4 C4          0.4365    1.5582   -4.9028 C.3       1 <0>        -0.1210
      5 C5         -0.3035    2.0432   -3.6546 C.3       1 <0>        -0.1206
      6 C6          0.2535    1.3286   -2.4217 C.3       1 <0>        -0.1205
      7 C7         -0.4865    1.8136   -1.1734 C.3       1 <0>        -0.1139
      8 C8          0.0704    1.0991    0.0595 C.3       1 <0>        -0.1017
      9 C9         -0.6584    1.5768    1.2890 C.2       1 <0>        -0.1601
     10 C10        -1.1961    0.7092    2.1102 C.2       1 <0>        -0.1598
     11 C11        -0.9432   -0.7643    1.9210 C.3       1 <0>        -0.1018
     12 C12        -0.4114   -1.3620    3.2252 C.3       1 <0>        -0.1142
     13 C13        -0.1547   -2.8581    3.0332 C.3       1 <0>        -0.1199
     14 C14         0.3771   -3.4558    4.3373 C.3       1 <0>        -0.1205
     15 C15         0.6338   -4.9518    4.1453 C.3       1 <0>        -0.1200
     16 C16         1.1656   -5.5496    5.4494 C.3       1 <0>        -0.1051
     17 C17         1.4223   -7.0456    5.2574 C.3       1 <0>        -0.1404
     18 C18         1.9461   -7.6343    6.5420 C.2       1 <0>         0.5101
     19 O1          2.0990   -6.9270    7.5152 O.2       1 <0>        -0.5410
     20 N1          2.2446   -8.9469    6.6092 N.am      1 <0>        -0.7288
     21 C19         2.7538   -9.5192    7.8580 C.3       1 <0>         0.1176
     22 C20         3.0105  -11.0153    7.6660 C.3       1 <0>         0.0628
     23 O2          4.0573  -11.2002    6.7109 O.3       1 <0>        -0.5723
     24 H1          0.5897    2.1567   -9.5062 H         1 <0>         0.0534
     25 H2         -1.0002    2.2813   -8.7158 H         1 <0>         0.0533
     26 H3          0.2014    3.5778   -8.5072 H         1 <0>         0.0533
     27 H4          1.6823    2.0087   -7.2852 H         1 <0>         0.0603
     28 H5          0.4807    0.7122   -7.4938 H         1 <0>         0.0602
     29 H6         -1.1833    2.0518   -6.2346 H         1 <0>         0.0605
     30 H7          0.0183    3.3483   -6.0260 H         1 <0>         0.0606
     31 H8          1.4993    1.7791   -4.8040 H         1 <0>         0.0606
     32 H9          0.2977    0.4826   -5.0126 H         1 <0>         0.0605
     33 H10        -1.3663    1.8222   -3.7534 H         1 <0>         0.0606
     34 H11        -0.1647    3.1187   -3.5449 H         1 <0>         0.0607
     35 H12         1.3162    1.5496   -2.3228 H         1 <0>         0.0611
     36 H13         0.1146    0.2531   -2.5314 H         1 <0>         0.0608
     37 H14        -1.5493    1.5927   -1.2723 H         1 <0>         0.0615
     38 H15        -0.3477    2.8892   -1.0637 H         1 <0>         0.0611
     39 H16        -0.0684    0.0235   -0.0502 H         1 <0>         0.0758
     40 H17         1.1332    1.3200    0.1583 H         1 <0>         0.0678
     41 H18        -0.7375    2.6344    1.4931 H         1 <0>         0.1071
     42 H19        -1.8206    1.0500    2.9228 H         1 <0>         0.1072
     43 H20        -1.8742   -1.2605    1.6470 H         1 <0>         0.0676
     44 H21        -0.2081   -0.9081    1.1292 H         1 <0>         0.0757
     45 H22         0.5196   -0.8659    3.4992 H         1 <0>         0.0619
     46 H23        -1.1465   -1.2183    4.0171 H         1 <0>         0.0615
     47 H24        -1.0857   -3.3543    2.7591 H         1 <0>         0.0611
     48 H25         0.5804   -3.0019    2.2413 H         1 <0>         0.0609
     49 H26         1.3081   -2.9596    4.6114 H         1 <0>         0.0624
     50 H27        -0.3580   -3.3120    5.1292 H         1 <0>         0.0623
     51 H28        -0.2972   -5.4480    3.8712 H         1 <0>         0.0619
     52 H29         1.3689   -5.0956    3.3534 H         1 <0>         0.0621
     53 H30         2.0966   -5.0534    5.7235 H         1 <0>         0.0695
     54 H31         0.4305   -5.4058    6.2413 H         1 <0>         0.0693
     55 H32         0.4913   -7.5418    4.9834 H         1 <0>         0.0929
     56 H33         2.1574   -7.1894    4.4655 H         1 <0>         0.0936
     57 H34         2.1224   -9.5126    5.8308 H         1 <0>         0.4035
     58 H35         3.6848   -9.0231    8.1320 H         1 <0>         0.0751
     59 H36         2.0187   -9.3755    8.6499 H         1 <0>         0.0823
     60 H37         3.3043  -11.4586    8.6174 H         1 <0>         0.0647
     61 H38         2.1012  -11.4967    7.3062 H         1 <0>         0.0540
     62 H39         4.2739  -12.1268    6.5392 H         1 <0>         0.3841
@<TRIPOS>BOND
     1    1    2 1
     2    1   24 1
     3    1   25 1
     4    1   26 1
     5    2    3 1
     6    2   27 1
     7    2   28 1
     8    3    4 1
     9    3   29 1
    10    3   30 1
    11    4    5 1
    12    4   31 1
    13    4   32 1
    14    5    6 1
    15    5   33 1
    16    5   34 1
    17    6    7 1
    18    6   35 1
    19    6   36 1
    20    7    8 1
    21    7   37 1
    22    7   38 1
    23    8    9 1
    24    8   39 1
    25    8   40 1
    26    9   10 2
    27    9   41 1
    28   10   11 1
    29   10   42 1
    30   11   12 1
    31   11   43 1
    32   11   44 1
    33   12   13 1
    34   12   45 1
    35   12   46 1
    36   13   14 1
    37   13   47 1
    38   13   48 1
    39   14   15 1
    40   14   49 1
    41   14   50 1
    42   15   16 1
    43   15   51 1
    44   15   52 1
    45   16   17 1
    46   16   53 1
    47   16   54 1
    48   17   18 1
    49   17   55 1
    50   17   56 1
    51   18   19 2
    52   18   20 am
    53   20   21 1
    54   20   57 1
    55   21   22 1
    56   21   58 1
    57   21   59 1
    58   22   23 1
    59   22   60 1
    60   22   61 1
    61   23   62 1
@<TRIPOS>MOLECULE
ZINC06069082
   48    51     0     0     0
SMALL
USER_CHARGES

@<TRIPOS>ATOM
      1 C1         -0.0184    1.5028    0.0103 C.3       1 <0>        -0.0707
      2 C2          0.0021   -0.0041    0.0020 C.2       1 <0>        -0.0344
      3 C3         -1.0705   -0.8164    0.0025 C.2       1 <0>        -0.0048
      4 N1         -0.6270   -2.0826   -0.0064 N.2       1 <0>        -0.4575
      5 C4          0.6851   -2.0676   -0.0123 C.2       1 <0>         0.2288
      6 O1          1.0981   -0.7883   -0.0131 O.3       1 <0>        -0.1937
      7 C5          1.5619   -3.2577   -0.0227 C.ar      1 <0>        -0.0165
      8 C6          1.0059   -4.5378   -0.0330 C.ar      1 <0>        -0.0699
      9 C7          1.8298   -5.6443   -0.0432 C.ar      1 <0>        -0.1201
     10 C8          3.2044   -5.4871   -0.0433 C.ar      1 <0>        -0.1016
     11 C9          3.7620   -4.2209   -0.0327 C.ar      1 <0>        -0.1219
     12 C10         2.9493   -3.1060   -0.0282 C.ar      1 <0>        -0.0910
     13 C11        -2.5133   -0.3814    0.0119 C.3       1 <0>        -0.0335
     14 C12        -3.0085   -0.2260   -1.4274 C.3       1 <0>         0.0678
     15 O2         -4.3766    0.1865   -1.4185 O.3       1 <0>        -0.3186
     16 C13        -4.9731    0.3716   -2.6255 C.ar      1 <0>         0.1209
     17 C14        -4.2580    0.1549   -3.7944 C.ar      1 <0>        -0.2071
     18 C15        -4.8667    0.3432   -5.0201 C.ar      1 <0>        -0.0117
     19 C16        -6.1874    0.7477   -5.0825 C.ar      1 <0>        -0.1089
     20 C17        -6.9021    0.9648   -3.9190 C.ar      1 <0>        -0.0788
     21 C18        -6.2998    0.7719   -2.6908 C.ar      1 <0>        -0.1622
     22 C19        -6.8489    0.9529   -6.4210 C.3       1 <0>        -0.0373
     23 C20        -7.4951   -0.3570   -6.8767 C.3       1 <0>        -0.1987
     24 H1         -8.1722   -0.7351   -6.1107 H         1 <0>         0.1153
     25 C21        -6.4348   -1.3869   -7.2041 C.2       1 <0>         0.3706
     26 O3         -5.5192   -1.8967   -6.3505 O.3       1 <0>        -0.6648
     27 N2         -6.5704   -1.6859   -8.4481 N.2       1 <0>        -0.4420
     28 O4         -7.6210   -0.9796   -9.0623 O.3       1 <0>        -0.1918
     29 C22        -8.2310   -0.1596   -8.1870 C.2       1 <0>         0.4519
     30 O5         -9.1678    0.5799   -8.3992 O.2       1 <0>        -0.4914
     31 H2          1.0042    1.8801    0.0026 H         1 <0>         0.0798
     32 H3         -0.5455    1.8639   -0.8728 H         1 <0>         0.0923
     33 H4         -0.5286    1.8543    0.9071 H         1 <0>         0.0922
     34 H5         -0.0670   -4.6619   -0.0326 H         1 <0>         0.1397
     35 H6          1.4008   -6.6354   -0.0508 H         1 <0>         0.1329
     36 H7          3.8450   -6.3565   -0.0513 H         1 <0>         0.1281
     37 H8          4.8357   -4.1050   -0.0321 H         1 <0>         0.1301
     38 H9          3.3858   -2.1181   -0.0249 H         1 <0>         0.1297
     39 H10        -3.1156   -1.1316    0.5243 H         1 <0>         0.0940
     40 H11        -2.6018    0.5726    0.5316 H         1 <0>         0.0915
     41 H12        -2.4061    0.5242   -1.9398 H         1 <0>         0.0596
     42 H13        -2.9200   -1.1800   -1.9471 H         1 <0>         0.0669
     43 H14        -3.2262   -0.1604   -3.7462 H         1 <0>         0.1191
     44 H15        -4.3105    0.1747   -5.9304 H         1 <0>         0.1248
     45 H16        -7.9335    1.2810   -3.9704 H         1 <0>         0.1235
     46 H17        -6.8598    0.9373   -1.7823 H         1 <0>         0.1235
     47 H18        -7.6139    1.7243   -6.3338 H         1 <0>         0.0757
     48 H19        -6.1019    1.2629   -7.1517 H         1 <0>         0.0699
@<TRIPOS>BOND
     1    1    2 1
     2    1   31 1
     3    1   32 1
     4    1   33 1
     5    2    6 1
     6    2    3 2
     7    3    4 1
     8    3   13 1
     9    4    5 2
    10    5    6 1
    11    5    7 1
    12    7   12 ar
    13    7    8 ar
    14    8    9 ar
    15    8   34 1
    16    9   10 ar
    17    9   35 1
    18   10   11 ar
    19   10   36 1
    20   11   12 ar
    21   11   37 1
    22   12   38 1
    23   13   14 1
    24   13   39 1
    25   13   40 1
    26   14   15 1
    27   14   41 1
    28   14   42 1
    29   15   16 1
    30   16   21 ar
    31   16   17 ar
    32   17   18 ar
    33   17   43 1
    34   18   19 ar
    35   18   44 1
    36   19   20 ar
    37   19   22 1
    38   20   21 ar
    39   20   45 1
    40   21   46 1
    41   22   23 1
    42   22   47 1
    43   22   48 1
    44   23   24 1
    45   23   29 1
    46   23   25 1
    47   25   26 1
    48   25   27 2
    49   27   28 1
    50   28   29 1
    51   29   30 2
@<TRIPOS>MOLECULE
ZINC06069082
   49    52     0     0     0
SMALL
USER_CHARGES

@<TRIPOS>ATOM
      1 C1         -0.0184    1.5028    0.0103 C.3       1 <0>        -0.0723
      2 C2          0.0021   -0.0041    0.0020 C.2       1 <0>        -0.0318
      3 C3         -1.0705   -0.8164    0.0025 C.2       1 <0>        -0.0104
      4 N1         -0.6270   -2.0826   -0.0064 N.2       1 <0>        -0.4611
      5 C4          0.6851   -2.0676   -0.0123 C.2       1 <0>         0.2347
      6 O1          1.0981   -0.7883   -0.0131 O.3       1 <0>        -0.1920
      7 C5          1.5619   -3.2577   -0.0227 C.ar      1 <0>        -0.0213
      8 C6          1.0059   -4.5378   -0.0330 C.ar      1 <0>        -0.0703
      9 C7          1.8298   -5.6443   -0.0432 C.ar      1 <0>        -0.1206
     10 C8          3.2044   -5.4871   -0.0433 C.ar      1 <0>        -0.0987
     11 C9          3.7620   -4.2209   -0.0327 C.ar      1 <0>        -0.1205
     12 C10         2.9493   -3.1060   -0.0282 C.ar      1 <0>        -0.0896
     13 C11        -2.5133   -0.3814    0.0119 C.3       1 <0>        -0.0334
     14 C12        -3.0085   -0.2260   -1.4274 C.3       1 <0>         0.0669
     15 O2         -4.3766    0.1865   -1.4185 O.3       1 <0>        -0.3126
     16 C13        -4.9731    0.3716   -2.6255 C.ar      1 <0>         0.1384
     17 C14        -4.2580    0.1549   -3.7944 C.ar      1 <0>        -0.2051
     18 C15        -4.8667    0.3432   -5.0201 C.ar      1 <0>        -0.0463
     19 C16        -6.1874    0.7477   -5.0825 C.ar      1 <0>        -0.1395
     20 C17        -6.9021    0.9648   -3.9190 C.ar      1 <0>        -0.0673
     21 C18        -6.2998    0.7719   -2.6908 C.ar      1 <0>        -0.1526
     22 C19        -6.8489    0.9529   -6.4210 C.3       1 <0>        -0.0461
     23 C20        -7.4951   -0.3570   -6.8767 C.3       1 <0>        -0.1881
     24 H1         -8.1719   -0.7343   -6.1101 H         1 <0>         0.1588
     25 C21        -8.2332   -0.1573   -8.1838 C.2       1 <0>         0.5267
     26 O3         -9.1705    0.5872   -8.3837 O.2       1 <0>        -0.4700
     27 N2         -7.6436   -0.9684   -9.0779 N.am      1 <0>        -0.5597
     28 O4         -6.5843   -1.6902   -8.4965 O.3       1 <0>        -0.1027
     29 C22        -6.4336   -1.3872   -7.2000 C.2       1 <0>         0.4798
     30 O5         -5.6104   -1.8448   -6.4363 O.2       1 <0>        -0.3991
     31 H2          1.0042    1.8801    0.0026 H         1 <0>         0.0818
     32 H3         -0.5455    1.8639   -0.8728 H         1 <0>         0.0906
     33 H4         -0.5286    1.8543    0.9071 H         1 <0>         0.0935
     34 H5         -0.0670   -4.6619   -0.0326 H         1 <0>         0.1384
     35 H6          1.4008   -6.6354   -0.0508 H         1 <0>         0.1334
     36 H7          3.8450   -6.3565   -0.0513 H         1 <0>         0.1297
     37 H8          4.8357   -4.1050   -0.0321 H         1 <0>         0.1318
     38 H9          3.3858   -2.1181   -0.0249 H         1 <0>         0.1303
     39 H10        -3.1156   -1.1316    0.5243 H         1 <0>         0.0956
     40 H11        -2.6018    0.5726    0.5316 H         1 <0>         0.0937
     41 H12        -2.4061    0.5242   -1.9398 H         1 <0>         0.0631
     42 H13        -2.9200   -1.1800   -1.9471 H         1 <0>         0.0682
     43 H14        -3.2262   -0.1604   -3.7462 H         1 <0>         0.1267
     44 H15        -4.3105    0.1747   -5.9304 H         1 <0>         0.1204
     45 H16        -7.9335    1.2810   -3.9704 H         1 <0>         0.1321
     46 H17        -6.8598    0.9373   -1.7823 H         1 <0>         0.1330
     47 H18        -7.6139    1.7243   -6.3338 H         1 <0>         0.1038
     48 H19        -6.1019    1.2629   -7.1517 H         1 <0>         0.0826
     49 H20        -7.9135   -1.0464  -10.0064 H         1 <0>         0.4569
@<TRIPOS>BOND
     1    1    2 1
     2    1   31 1
     3    1   32 1
     4    1   33 1
     5    2    6 1
     6    2    3 2
     7    3    4 1
     8    3   13 1
     9    4    5 2
    10    5    6 1
    11    5    7 1
    12    7   12 ar
    13    7    8 ar
    14    8    9 ar
    15    8   34 1
    16    9   10 ar
    17    9   35 1
    18   10   11 ar
    19   10   36 1
    20   11   12 ar
    21   11   37 1
    22   12   38 1
    23   13   14 1
    24   13   39 1
    25   13   40 1
    26   14   15 1
    27   14   41 1
    28   14   42 1
    29   15   16 1
    30   16   21 ar
    31   16   17 ar
    32   17   18 ar
    33   17   43 1
    34   18   19 ar
    35   18   44 1
    36   19   20 ar
    37   19   22 1
    38   20   21 ar
    39   20   45 1
    40   21   46 1
    41   22   23 1
    42   22   47 1
    43   22   48 1
    44   23   24 1
    45   23   29 1
    46   23   25 1
    47   25   26 2
    48   25   27 am
    49   27   28 1
    50   27   49 1
    51   28   29 1
    52   29   30 2
@<TRIPOS>MOLECULE
ZINC06069082
   49    52     0     0     0
SMALL
USER_CHARGES

@<TRIPOS>ATOM
      1 C1         -0.0184    1.5028    0.0103 C.3       1 <0>        -0.0724
      2 C2          0.0021   -0.0041    0.0020 C.2       1 <0>        -0.0316
      3 C3         -1.0705   -0.8164    0.0025 C.2       1 <0>        -0.0104
      4 N1         -0.6270   -2.0826   -0.0064 N.2       1 <0>        -0.4613
      5 C4          0.6851   -2.0676   -0.0123 C.2       1 <0>         0.2346
      6 O1          1.0981   -0.7883   -0.0131 O.3       1 <0>        -0.1920
      7 C5          1.5619   -3.2577   -0.0227 C.ar      1 <0>        -0.0214
      8 C6          1.0059   -4.5378   -0.0330 C.ar      1 <0>        -0.0704
      9 C7          1.8298   -5.6443   -0.0432 C.ar      1 <0>        -0.1206
     10 C8          3.2044   -5.4871   -0.0433 C.ar      1 <0>        -0.0986
     11 C9          3.7620   -4.2209   -0.0327 C.ar      1 <0>        -0.1204
     12 C10         2.9493   -3.1060   -0.0282 C.ar      1 <0>        -0.0895
     13 C11        -2.5133   -0.3814    0.0119 C.3       1 <0>        -0.0338
     14 C12        -3.0085   -0.2260   -1.4274 C.3       1 <0>         0.0673
     15 O2         -4.3766    0.1865   -1.4185 O.3       1 <0>        -0.3124
     16 C13        -4.9731    0.3716   -2.6255 C.ar      1 <0>         0.1386
     17 C14        -4.2580    0.1549   -3.7944 C.ar      1 <0>        -0.2101
     18 C15        -4.8667    0.3432   -5.0201 C.ar      1 <0>        -0.0664
     19 C16        -6.1874    0.7477   -5.0825 C.ar      1 <0>        -0.1389
     20 C17        -6.9021    0.9648   -3.9190 C.ar      1 <0>        -0.0479
     21 C18        -6.2998    0.7719   -2.6908 C.ar      1 <0>        -0.1475
     22 C19        -6.8489    0.9529   -6.4210 C.3       1 <0>        -0.0462
     23 C20        -7.4951   -0.3570   -6.8767 C.3       1 <0>        -0.1883
     24 H1         -6.7627   -1.1643   -6.8724 H         1 <0>         0.1578
     25 C21        -8.1004   -0.1978   -8.2556 C.2       1 <0>         0.5267
     26 O3         -7.5132    0.0815   -9.2803 O.2       1 <0>        -0.4706
     27 N2         -9.4171   -0.4272   -8.1186 N.am      1 <0>        -0.5596
     28 O4         -9.7506   -0.7241   -6.7836 O.3       1 <0>        -0.1023
     29 C22        -8.6717   -0.7043   -5.9892 C.2       1 <0>         0.4799
     30 O5         -8.6417   -0.9210   -4.7966 O.2       1 <0>        -0.3978
     31 H2          1.0042    1.8801    0.0026 H         1 <0>         0.0819
     32 H3         -0.5455    1.8639   -0.8728 H         1 <0>         0.0907
     33 H4         -0.5286    1.8543    0.9071 H         1 <0>         0.0936
     34 H5         -0.0670   -4.6619   -0.0326 H         1 <0>         0.1383
     35 H6          1.4008   -6.6354   -0.0508 H         1 <0>         0.1334
     36 H7          3.8450   -6.3565   -0.0513 H         1 <0>         0.1298
     37 H8          4.8357   -4.1050   -0.0321 H         1 <0>         0.1319
     38 H9          3.3858   -2.1181   -0.0249 H         1 <0>         0.1304
     39 H10        -3.1156   -1.1316    0.5243 H         1 <0>         0.0957
     40 H11        -2.6018    0.5726    0.5316 H         1 <0>         0.0938
     41 H12        -2.4061    0.5242   -1.9398 H         1 <0>         0.0632
     42 H13        -2.9200   -1.1800   -1.9471 H         1 <0>         0.0675
     43 H14        -3.2262   -0.1604   -3.7462 H         1 <0>         0.1274
     44 H15        -4.3105    0.1747   -5.9304 H         1 <0>         0.1268
     45 H16        -7.9335    1.2810   -3.9704 H         1 <0>         0.1256
     46 H17        -6.8598    0.9373   -1.7823 H         1 <0>         0.1324
     47 H18        -7.6139    1.7243   -6.3338 H         1 <0>         0.0838
     48 H19        -6.1019    1.2629   -7.1517 H         1 <0>         0.1027
     49 H20       -10.0566   -0.3930   -8.8471 H         1 <0>         0.4569
@<TRIPOS>BOND
     1    1    2 1
     2    1   31 1
     3    1   32 1
     4    1   33 1
     5    2    6 1
     6    2    3 2
     7    3    4 1
     8    3   13 1
     9    4    5 2
    10    5    6 1
    11    5    7 1
    12    7   12 ar
    13    7    8 ar
    14    8    9 ar
    15    8   34 1
    16    9   10 ar
    17    9   35 1
    18   10   11 ar
    19   10   36 1
    20   11   12 ar
    21   11   37 1
    22   12   38 1
    23   13   14 1
    24   13   39 1
    25   13   40 1
    26   14   15 1
    27   14   41 1
    28   14   42 1
    29   15   16 1
    30   16   21 ar
    31   16   17 ar
    32   17   18 ar
    33   17   43 1
    34   18   19 ar
    35   18   44 1
    36   19   20 ar
    37   19   22 1
    38   20   21 ar
    39   20   45 1
    40   21   46 1
    41   22   23 1
    42   22   47 1
    43   22   48 1
    44   23   24 1
    45   23   29 1
    46   23   25 1
    47   25   26 2
    48   25   27 am
    49   27   28 1
    50   27   49 1
    51   28   29 1
    52   29   30 2
@<TRIPOS>MOLECULE
ZINC00001963
   34    35     0     0     0
SMALL
USER_CHARGES

@<TRIPOS>ATOM
      1 C1          1.1628    1.2415   -0.1816 C.3       1 <0>        -0.1125
      2 C2          0.5396   -0.1274   -0.0881 C.ar      1 <0>        -0.0708
      3 C3         -0.0758   -0.6832   -1.1950 C.ar      1 <0>        -0.1399
      4 C4         -0.6489   -1.9389   -1.1136 C.ar      1 <0>        -0.0956
      5 C5         -0.6081   -2.6426    0.0743 C.ar      1 <0>        -0.1245
      6 C6          0.0094   -2.0875    1.1876 C.ar      1 <0>         0.1624
      7 C7          0.5885   -0.8277    1.1009 C.ar      1 <0>        -0.1269
      8 C8          1.2642   -0.2236    2.3049 C.3       1 <0>        -0.1134
      9 N1          0.0525   -2.7970    2.3913 N.pl3     1 <0>        -0.6432
     10 C9         -0.0333   -4.1809    2.3838 C.ar      1 <0>         0.4504
     11 C10        -0.1233   -4.8911    3.5821 C.ar      1 <0>        -0.2937
     12 C11        -0.2076   -6.2706    3.5268 C.ar      1 <0>         0.2686
     13 N2         -0.2005   -6.8736    2.3458 N.ar      1 <0>        -0.5558
     14 C12        -0.1140   -6.1729    1.2242 C.ar      1 <0>         0.3382
     15 N3         -0.0367   -4.8500    1.2351 N.ar      1 <0>        -0.5436
     16 S1         -0.1079   -7.0210   -0.3202 S.3       1 <0>         0.0845
     17 C13        -0.2344   -8.7712    0.1397 C.3       1 <0>        -0.1742
     18 C14        -0.2397   -9.6189   -1.1062 C.2       1 <0>         0.5136
     19 O1         -0.1649   -9.0913   -2.2028 O.co2     1 <0>        -0.6747
     20 O2         -0.3186  -10.8323   -1.0176 O.co2     1 <0>        -0.6767
     21 Cl1        -0.3208   -7.2023    4.9872 Cl        1 <0>        -0.0203
     22 H1          2.2036    1.1465   -0.4911 H         1 <0>         0.0688
     23 H2          0.6192    1.8390   -0.9134 H         1 <0>         0.0653
     24 H3          1.1164    1.7291    0.7921 H         1 <0>         0.0654
     25 H4         -0.1091   -0.1351   -2.1250 H         1 <0>         0.1195
     26 H5         -1.1293   -2.3698   -1.9796 H         1 <0>         0.1264
     27 H6         -1.0562   -3.6232    0.1373 H         1 <0>         0.1517
     28 H7          0.5364    0.3468    2.8820 H         1 <0>         0.0672
     29 H8          1.6782   -1.0180    2.9259 H         1 <0>         0.0600
     30 H9          2.0668    0.4373    1.9776 H         1 <0>         0.0719
     31 H10         0.1425   -2.3212    3.2317 H         1 <0>         0.4195
     32 H11        -0.1267   -4.3752    4.5310 H         1 <0>         0.1489
     33 H12         0.6171   -9.0457    0.7624 H         1 <0>         0.0917
     34 H13        -1.1582   -8.9351    0.6946 H         1 <0>         0.0918
@<TRIPOS>BOND
     1    1    2 1
     2    1   22 1
     3    1   23 1
     4    1   24 1
     5    2    7 ar
     6    2    3 ar
     7    3    4 ar
     8    3   25 1
     9    4    5 ar
    10    4   26 1
    11    5    6 ar
    12    5   27 1
    13    6    7 ar
    14    6    9 1
    15    7    8 1
    16    8   28 1
    17    8   29 1
    18    8   30 1
    19    9   10 1
    20    9   31 1
    21   10   15 ar
    22   10   11 ar
    23   11   12 ar
    24   11   32 1
    25   12   13 ar
    26   12   21 1
    27   13   14 ar
    28   14   15 ar
    29   14   16 1
    30   16   17 1
    31   17   18 1
    32   17   33 1
    33   17   34 1
    34   18   19 2
    35   18   20 1
@<TRIPOS>MOLECULE
ZINC08730641
   33    34     0     0     0
SMALL
USER_CHARGES
2-(2-naphthyloxy)pentanoic acid
@<TRIPOS>ATOM
      1 C1          0.3696    4.2694    3.1688 C.3       1 <0>        -0.1488
      2 C2          0.6524    3.0287    2.3194 C.3       1 <0>        -0.1244
      3 C3          0.8505    3.4440    0.8602 C.3       1 <0>        -0.0969
      4 C4          1.1333    2.2033    0.0107 C.3       1 <0>         0.0390
      5 H1          1.9832    1.6632    0.4281 H         1 <0>         0.0722
      6 C5          1.4494    2.6230   -1.4017 C.2       1 <0>         0.4459
      7 O1          0.7100    2.3102   -2.3047 O.co2     1 <0>        -0.6160
      8 O2         -0.0164    1.3546    0.0095 O.3       1 <0>        -0.2933
      9 C6          0.1915    0.0346   -0.2371 C.ar      1 <0>         0.1722
     10 C7          1.4713   -0.4092   -0.5850 C.ar      1 <0>        -0.1730
     11 C8          1.7105   -1.7238   -0.8377 C.ar      1 <0>        -0.0737
     12 C9          0.6595   -2.6534   -0.7491 C.ar      1 <0>        -0.0915
     13 C10         0.8716   -4.0191   -1.0030 C.ar      1 <0>        -0.0891
     14 C11        -0.1686   -4.8916   -0.9076 C.ar      1 <0>        -0.1443
     15 C12        -1.4449   -4.4518   -0.5612 C.ar      1 <0>        -0.1144
     16 C13        -1.6880   -3.1369   -0.3082 C.ar      1 <0>        -0.1163
     17 C14        -0.6384   -2.2059   -0.3967 C.ar      1 <0>        -0.0081
     18 C15        -0.8508   -0.8421   -0.1366 C.ar      1 <0>        -0.1806
     19 H2          1.2117    4.9578    3.0981 H         1 <0>         0.0532
     20 H3         -0.5329    4.7607    2.8052 H         1 <0>         0.0528
     21 H4          0.2285    3.9735    4.2084 H         1 <0>         0.0492
     22 H5         -0.1897    2.3402    2.3901 H         1 <0>         0.0641
     23 H6          1.5549    2.5374    2.6830 H         1 <0>         0.0572
     24 H7          1.6926    4.1324    0.7895 H         1 <0>         0.0885
     25 H8         -0.0520    3.9353    0.4965 H         1 <0>         0.0677
     26 H9          2.2811    0.3020   -0.6537 H         1 <0>         0.1328
     27 H10         2.7040   -2.0525   -1.1049 H         1 <0>         0.1275
     28 H11         1.8552   -4.3747   -1.2721 H         1 <0>         0.1215
     29 H12        -0.0024   -5.9407   -1.1030 H         1 <0>         0.1160
     30 H13        -2.2530   -5.1650   -0.4922 H         1 <0>         0.1168
     31 H14        -2.6822   -2.8103   -0.0412 H         1 <0>         0.1231
     32 H15        -1.8337   -0.4880    0.1371 H         1 <0>         0.1300
     33 O3          2.5523    3.3443   -1.6567 O.co2     1 <0>        -0.7594
@<TRIPOS>BOND
     1    1    2 1
     2    1   19 1
     3    1   20 1
     4    1   21 1
     5    2    3 1
     6    2   22 1
     7    2   23 1
     8    3    4 1
     9    3   24 1
    10    3   25 1
    11    4    5 1
    12    4    6 1
    13    4    8 1
    14    6    7 2
    15    6   33 1
    16    8    9 1
    17    9   18 ar
    18    9   10 ar
    19   10   11 ar
    20   10   26 1
    21   11   12 ar
    22   11   27 1
    23   12   17 ar
    24   12   13 ar
    25   13   14 ar
    26   13   28 1
    27   14   15 ar
    28   14   29 1
    29   15   16 ar
    30   15   30 1
    31   16   17 ar
    32   16   31 1
    33   17   18 ar
    34   18   32 1
@<TRIPOS>MOLECULE
ZINC08730640
   33    34     0     0     0
SMALL
USER_CHARGES
2-(2-naphthyloxy)pentanoic acid
@<TRIPOS>ATOM
      1 C1         -2.6346    2.1286   -2.6206 C.3       1 <0>        -0.1489
      2 C2         -2.0615    1.4101   -1.3974 C.3       1 <0>        -0.1244
      3 C3         -0.5931    1.8008   -1.2180 C.3       1 <0>        -0.0969
      4 C4         -0.0201    1.0823    0.0052 C.3       1 <0>         0.0390
      5 H1         -0.1744    0.0083   -0.0988 H         1 <0>         0.0722
      6 C5          1.4555    1.3698    0.1111 C.2       1 <0>         0.4459
      7 O1          1.8830    1.9959    1.0519 O.co2     1 <0>        -0.6160
      8 O2         -0.6816    1.5467    1.1837 O.3       1 <0>        -0.2933
      9 C6         -0.6906    0.7116    2.2557 C.ar      1 <0>         0.1719
     10 C7          0.0277   -0.4871    2.2027 C.ar      1 <0>        -0.1729
     11 C8          0.0379   -1.3432    3.2593 C.ar      1 <0>        -0.0739
     12 C9         -0.6823   -1.0226    4.4234 C.ar      1 <0>        -0.0914
     13 C10        -0.6931   -1.8839    5.5337 C.ar      1 <0>        -0.0891
     14 C11        -1.4009   -1.5419    6.6448 C.ar      1 <0>        -0.1442
     15 C12        -2.1176   -0.3479    6.7000 C.ar      1 <0>        -0.1144
     16 C13        -2.1304    0.5108    5.6443 C.ar      1 <0>        -0.1162
     17 C14        -1.4112    0.1918    4.4794 C.ar      1 <0>        -0.0083
     18 C15        -1.3965    1.0567    3.3728 C.ar      1 <0>        -0.1802
     19 H2         -2.0710    1.8409   -3.5082 H         1 <0>         0.0532
     20 H3         -3.6807    1.8502   -2.7485 H         1 <0>         0.0492
     21 H4         -2.5604    3.2065   -2.4767 H         1 <0>         0.0528
     22 H5         -2.1357    0.3322   -1.5414 H         1 <0>         0.0572
     23 H6         -2.6251    1.6978   -0.5099 H         1 <0>         0.0641
     24 H7         -0.5190    2.8787   -1.0740 H         1 <0>         0.0677
     25 H8         -0.0295    1.5131   -2.1055 H         1 <0>         0.0885
     26 H9          0.5818   -0.7367    1.3100 H         1 <0>         0.1328
     27 H10         0.5973   -2.2654    3.2045 H         1 <0>         0.1275
     28 H11        -0.1421   -2.8123    5.5057 H         1 <0>         0.1215
     29 H12        -1.4069   -2.2057    7.4967 H         1 <0>         0.1160
     30 H13        -2.6707   -0.1003    7.5939 H         1 <0>         0.1168
     31 H14        -2.6906    1.4324    5.7011 H         1 <0>         0.1231
     32 H15        -1.9438    1.9872    3.4035 H         1 <0>         0.1301
     33 O3          2.2948    0.9304   -0.8398 O.co2     1 <0>        -0.7594
@<TRIPOS>BOND
     1    1    2 1
     2    1   19 1
     3    1   20 1
     4    1   21 1
     5    2    3 1
     6    2   22 1
     7    2   23 1
     8    3    4 1
     9    3   24 1
    10    3   25 1
    11    4    5 1
    12    4    6 1
    13    4    8 1
    14    6    7 2
    15    6   33 1
    16    8    9 1
    17    9   18 ar
    18    9   10 ar
    19   10   11 ar
    20   10   26 1
    21   11   12 ar
    22   11   27 1
    23   12   17 ar
    24   12   13 ar
    25   13   14 ar
    26   13   28 1
    27   14   15 ar
    28   14   29 1
    29   15   16 ar
    30   15   30 1
    31   16   17 ar
    32   16   31 1
    33   17   18 ar
    34   18   32 1
@<TRIPOS>MOLECULE
ZINC08022594
   47    49     0     0     0
SMALL
USER_CHARGES

@<TRIPOS>ATOM
      1 C1         -0.0184    1.5028    0.0103 C.3       1 <0>        -0.1057
      2 C2          0.0021   -0.0041    0.0020 C.ar      1 <0>        -0.1055
      3 C3          0.0057   -0.6878   -1.1980 C.ar      1 <0>        -0.0578
      4 C4          0.0246   -2.0766   -1.2053 C.ar      1 <0>        -0.1393
      5 C5          0.0397   -2.7765   -0.0051 C.ar      1 <0>        -0.0936
      6 C6          0.0360   -2.0909    1.1933 C.ar      1 <0>        -0.1958
      7 C7          0.0229   -0.7036    1.1994 C.ar      1 <0>         0.1428
      8 O1          0.0254   -0.0293    2.3804 O.3       1 <0>        -0.2743
      9 C8          0.0474   -0.8131    3.5751 C.3       1 <0>        -0.0087
     10 C9          0.0468    0.0992    4.7746 C.2       1 <0>         0.5015
     11 O2          0.0293    1.3085    4.6207 O.co2     1 <0>        -0.6695
     12 O3          0.0640   -0.3721    5.8989 O.co2     1 <0>        -0.6867
     13 S1          0.0286   -2.9502   -2.7355 S.3       1 <0>        -0.1068
     14 C10         0.0549   -4.6962   -2.2439 C.3       1 <0>        -0.0216
     15 C11         0.0604   -5.5647   -3.4755 C.2       1 <0>        -0.1482
     16 C12         1.1098   -6.0555   -4.1871 C.2       1 <0>         0.0771
     17 N1          0.8913   -6.8034   -5.2429 N.2       1 <0>        -0.4749
     18 C13        -0.3404   -7.0952   -5.6368 C.2       1 <0>         0.1220
     19 S2         -1.3116   -6.2421   -4.4014 S.3       1 <0>         0.0640
     20 C14        -0.7899   -7.9110   -6.7852 C.ar      1 <0>         0.0575
     21 C15        -2.1529   -8.0893   -7.0271 C.ar      1 <0>        -0.1078
     22 C16        -2.5672   -8.8514   -8.0998 C.ar      1 <0>        -0.0372
     23 C17        -1.6352   -9.4396   -8.9359 C.ar      1 <0>        -0.2128
     24 C18        -0.2805   -9.2673   -8.7023 C.ar      1 <0>         0.1568
     25 C19         0.1466   -8.5008   -7.6344 C.ar      1 <0>        -0.1127
     26 F1          0.6243   -9.8446   -9.5229 F         1 <0>        -0.1169
     27 C20        -2.0954  -10.2716  -10.1052 C.3       1 <0>         0.5137
     28 F2         -3.4937  -10.3004  -10.1354 F         1 <0>        -0.1713
     29 F3         -1.6147   -9.7117  -11.2938 F         1 <0>        -0.1702
     30 F4         -1.6048  -11.5750   -9.9719 F         1 <0>        -0.1704
     31 C21         2.5216   -5.7406   -3.7642 C.3       1 <0>        -0.0908
     32 H1          1.0042    1.8801    0.0026 H         1 <0>         0.0690
     33 H2         -0.5455    1.8639   -0.8728 H         1 <0>         0.0611
     34 H3         -0.5286    1.8543    0.9071 H         1 <0>         0.0803
     35 H4         -0.0064   -0.1428   -2.1303 H         1 <0>         0.1298
     36 H5          0.0540   -3.8564   -0.0097 H         1 <0>         0.1186
     37 H6          0.0478   -2.6347    2.1263 H         1 <0>         0.1328
     38 H7         -0.8339   -1.4538    3.6055 H         1 <0>         0.0595
     39 H8          0.9458   -1.4302    3.5883 H         1 <0>         0.0598
     40 H9          0.9506   -4.8945   -1.6554 H         1 <0>         0.1159
     41 H10        -0.8291   -4.9187   -1.6464 H         1 <0>         0.1066
     42 H11        -2.8822   -7.6315   -6.3752 H         1 <0>         0.1483
     43 H12        -3.6218   -8.9894   -8.2871 H         1 <0>         0.1590
     44 H13         1.2026   -8.3626   -7.4552 H         1 <0>         0.1622
     45 H14         2.8716   -6.5040   -3.0694 H         1 <0>         0.0782
     46 H15         3.1684   -5.7238   -4.6414 H         1 <0>         0.0797
     47 H16         2.5460   -4.7664   -3.2761 H         1 <0>         0.0824
@<TRIPOS>BOND
     1    1    2 1
     2    1   32 1
     3    1   33 1
     4    1   34 1
     5    2    7 ar
     6    2    3 ar
     7    3    4 ar
     8    3   35 1
     9    4    5 ar
    10    4   13 1
    11    5    6 ar
    12    5   36 1
    13    6    7 ar
    14    6   37 1
    15    7    8 1
    16    8    9 1
    17    9   10 1
    18    9   38 1
    19    9   39 1
    20   10   11 2
    21   10   12 1
    22   13   14 1
    23   14   15 1
    24   14   40 1
    25   14   41 1
    26   15   19 1
    27   15   16 2
    28   16   17 1
    29   16   31 1
    30   17   18 2
    31   18   19 1
    32   18   20 1
    33   20   25 ar
    34   20   21 ar
    35   21   22 ar
    36   21   42 1
    37   22   23 ar
    38   22   43 1
    39   23   24 ar
    40   23   27 1
    41   24   25 ar
    42   24   26 1
    43   25   44 1
    44   27   28 1
    45   27   29 1
    46   27   30 1
    47   31   45 1
    48   31   46 1
    49   31   47 1
@<TRIPOS>MOLECULE
ZINC01549989
   47    49     0     0     0
SMALL
USER_CHARGES

@<TRIPOS>ATOM
      1 C1         -2.5043    0.0232    0.0377 C.3       1 <0>        -0.1059
      2 C2         -1.1897   -0.7133    0.0154 C.ar      1 <0>        -0.1042
      3 C3         -1.1722   -2.0943    0.0029 C.ar      1 <0>        -0.0582
      4 C4          0.0397   -2.7728   -0.0118 C.ar      1 <0>        -0.1370
      5 C5          1.2330   -2.0613   -0.0199 C.ar      1 <0>        -0.0938
      6 C6          1.2131   -0.6808   -0.0132 C.ar      1 <0>        -0.1941
      7 C7          0.0021   -0.0041    0.0020 C.ar      1 <0>         0.1425
      8 O1         -0.0164    1.3558    0.0095 O.3       1 <0>        -0.2805
      9 C8          1.2479    2.0218    0.0010 C.3       1 <0>         0.0163
     10 C9          1.0302    3.5130    0.0111 C.2       1 <0>         0.4694
     11 O2         -0.0924    3.9596    0.0242 O.co2     1 <0>        -0.6124
     12 S1          0.0636   -4.5346   -0.0209 S.3       1 <0>        -0.1072
     13 C10         1.8294   -4.9495   -0.0402 C.3       1 <0>        -0.0196
     14 C11         1.9934   -6.4475   -0.0494 C.2       1 <0>        -0.1541
     15 C12         2.0777   -7.3053   -1.1008 C.2       1 <0>         0.0788
     16 N1          2.2206   -8.5918   -0.8854 N.2       1 <0>        -0.4809
     17 C13         2.2855   -9.0806    0.3451 C.2       1 <0>         0.1336
     18 S2          2.1390   -7.5888    1.3199 S.3       1 <0>         0.0503
     19 C14         2.4434  -10.4815    0.7913 C.ar      1 <0>         0.0239
     20 C15         2.4951  -10.7815    2.1531 C.ar      1 <0>        -0.0953
     21 C16         2.6378  -12.0912    2.5629 C.ar      1 <0>        -0.0656
     22 C17         2.7402  -13.1048    1.6268 C.ar      1 <0>        -0.1707
     23 C18         2.6950  -12.8134    0.2751 C.ar      1 <0>        -0.0684
     24 C19         2.5473  -11.5085   -0.1478 C.ar      1 <0>        -0.0736
     25 C20         2.9023  -14.5324    2.0815 C.3       1 <0>         0.5086
     26 F1          4.2634  -14.8294    2.2096 F         1 <0>        -0.1744
     27 F2          2.2695  -14.7028    3.3176 F         1 <0>        -0.1752
     28 F3          2.3244  -15.3903    1.1396 F         1 <0>        -0.1751
     29 C21         2.0067   -6.7795   -2.5114 C.3       1 <0>        -0.0902
     30 H1         -2.8358    0.2058   -0.9845 H         1 <0>         0.0692
     31 H2         -3.2489   -0.5783    0.5591 H         1 <0>         0.0617
     32 H3         -2.3790    0.9746    0.5545 H         1 <0>         0.0796
     33 H4         -2.1004   -2.6463    0.0091 H         1 <0>         0.1302
     34 H5          2.1759   -2.5879   -0.0317 H         1 <0>         0.1195
     35 H6          2.1406   -0.1275   -0.0194 H         1 <0>         0.1341
     36 H7          1.8173    1.7318    0.8840 H         1 <0>         0.0668
     37 H8          1.8003    1.7414   -0.8958 H         1 <0>         0.0670
     38 H9          2.2919   -4.5279   -0.9326 H         1 <0>         0.1149
     39 H10         2.3093   -4.5368    0.8472 H         1 <0>         0.1057
     40 H11         2.4194   -9.9907    2.8848 H         1 <0>         0.1405
     41 H12         2.6742  -12.3252    3.6166 H         1 <0>         0.1456
     42 H13         2.7751  -13.6092   -0.4506 H         1 <0>         0.1451
     43 H14         2.5125  -11.2823   -1.2033 H         1 <0>         0.1494
     44 H15         3.0110   -6.5406   -2.8611 H         1 <0>         0.0775
     45 H16         1.5669   -7.5372   -3.1598 H         1 <0>         0.0790
     46 H17         1.3908   -5.8805   -2.5334 H         1 <0>         0.0816
     47 O3          2.0835    4.3451    0.0055 O.co2     1 <0>        -0.7545
@<TRIPOS>BOND
     1    1    2 1
     2    1   30 1
     3    1   31 1
     4    1   32 1
     5    2    7 ar
     6    2    3 ar
     7    3    4 ar
     8    3   33 1
     9    4    5 ar
    10    4   12 1
    11    5    6 ar
    12    5   34 1
    13    6    7 ar
    14    6   35 1
    15    7    8 1
    16    8    9 1
    17    9   10 1
    18    9   36 1
    19    9   37 1
    20   10   11 2
    21   10   47 1
    22   12   13 1
    23   13   14 1
    24   13   38 1
    25   13   39 1
    26   14   18 1
    27   14   15 2
    28   15   16 1
    29   15   29 1
    30   16   17 2
    31   17   18 1
    32   17   19 1
    33   19   24 ar
    34   19   20 ar
    35   20   21 ar
    36   20   40 1
    37   21   22 ar
    38   21   41 1
    39   22   23 ar
    40   22   25 1
    41   23   24 ar
    42   23   42 1
    43   24   43 1
    44   25   26 1
    45   25   27 1
    46   25   28 1
    47   29   44 1
    48   29   45 1
    49   29   46 1
@<TRIPOS>MOLECULE
ZINC00595076
   56    58     0     0     0
SMALL
USER_CHARGES
2-methyl-2-[4-[3-[5-oxo-1-(p-tolylmethyl)-4H-1,2,4-triazol-3-yl]propyl]phenoxy]-propanoic acid
@<TRIPOS>ATOM
      1 C1         -8.4684    0.2808   -3.4230 C.3       1 <0>        -0.1160
      2 C2         -7.3016    1.2256   -3.2928 C.ar      1 <0>        -0.0780
      3 C3         -7.0032    1.7905   -2.0670 C.ar      1 <0>        -0.1257
      4 C4         -5.9326    2.6568   -1.9475 C.ar      1 <0>        -0.0837
      5 C5         -5.1603    2.9579   -3.0537 C.ar      1 <0>        -0.1257
      6 C6         -5.4619    2.3971   -4.2806 C.ar      1 <0>        -0.0903
      7 C7         -6.5301    1.5277   -4.3993 C.ar      1 <0>        -0.1285
      8 C8         -3.9932    3.9023   -2.9233 C.3       1 <0>         0.2009
      9 N1         -2.7851    3.1428   -2.5917 N.am      1 <0>        -0.4458
     10 C9         -1.9103    2.6083   -3.4692 C.2       1 <0>         0.6477
     11 O1         -1.9794    2.6685   -4.6839 O.2       1 <0>        -0.5606
     12 N2         -0.9454    1.9960   -2.7540 N.am      1 <0>        -0.6602
     13 H1         -0.1813    1.5231   -3.1193 H         1 <0>         0.4359
     14 C10        -1.2295    2.1555   -1.4196 C.2       1 <0>         0.2765
     15 N3         -2.3263    2.8323   -1.3041 N.2       1 <0>        -0.2618
     16 C11        -0.4027    1.6237   -0.2774 C.3       1 <0>        -0.0437
     17 C12        -1.0560    2.0139    1.0500 C.3       1 <0>        -0.1074
     18 C13        -0.2167    1.4741    2.2097 C.3       1 <0>        -0.0655
     19 C14        -0.8602    1.8584    3.5171 C.ar      1 <0>        -0.1390
     20 C15        -0.5161    3.0478    4.1323 C.ar      1 <0>        -0.0875
     21 C16        -1.1087    3.4051    5.3280 C.ar      1 <0>        -0.1639
     22 C17        -2.0415    2.5638    5.9171 C.ar      1 <0>         0.1623
     23 C18        -2.3808    1.3683    5.3006 C.ar      1 <0>        -0.1683
     24 C19        -1.7895    1.0182    4.1021 C.ar      1 <0>        -0.0889
     25 O2         -2.6221    2.9106    7.0958 O.3       1 <0>        -0.3049
     26 C20        -2.1357    4.0921    7.7358 C.3       1 <0>         0.0579
     27 C21        -2.8766    4.2975    9.0585 C.3       1 <0>        -0.1160
     28 C22        -0.6374    3.9446    8.0081 C.3       1 <0>        -0.1759
     29 C23        -2.3688    5.2810    6.8396 C.2       1 <0>         0.4486
     30 O3         -2.8972    5.1319    5.7633 O.co2     1 <0>        -0.6128
     31 H2         -9.3676    0.8456   -3.6692 H         1 <0>         0.0712
     32 H3         -8.2649   -0.4411   -4.2139 H         1 <0>         0.0653
     33 H4         -8.6168   -0.2455   -2.4801 H         1 <0>         0.0671
     34 H5         -7.6062    1.5547   -1.2026 H         1 <0>         0.1244
     35 H6         -5.6994    3.0982   -0.9897 H         1 <0>         0.1287
     36 H7         -4.8612    2.6357   -5.1458 H         1 <0>         0.1252
     37 H8         -6.7635    1.0867   -5.3571 H         1 <0>         0.1212
     38 H9         -4.1967    4.6246   -2.1328 H         1 <0>         0.1059
     39 H10        -3.8443    4.4282   -3.8664 H         1 <0>         0.1025
     40 H11        -0.3424    0.5376   -0.3472 H         1 <0>         0.0967
     41 H12         0.6004    2.0472   -0.3269 H         1 <0>         0.0978
     42 H13        -1.1163    3.1000    1.1199 H         1 <0>         0.0771
     43 H14        -2.0592    1.5904    1.0995 H         1 <0>         0.0750
     44 H15        -0.1564    0.3880    2.1398 H         1 <0>         0.0664
     45 H16         0.7865    1.8976    2.1601 H         1 <0>         0.0672
     46 H17         0.2134    3.7003    3.6755 H         1 <0>         0.1139
     47 H18        -0.8429    4.3363    5.8060 H         1 <0>         0.1392
     48 H19        -3.1064    0.7115    5.7573 H         1 <0>         0.1194
     49 H20        -2.0536    0.0878    3.6216 H         1 <0>         0.1168
     50 H21        -2.6393    3.4795    9.7387 H         1 <0>         0.0528
     51 H22        -2.5677    5.2426    9.5051 H         1 <0>         0.0822
     52 H23        -3.9508    4.3167    8.8742 H         1 <0>         0.0574
     53 H24        -0.1260    3.6683    7.0860 H         1 <0>         0.0703
     54 H25        -0.2398    4.8911    8.3744 H         1 <0>         0.0785
     55 H26        -0.4789    3.1695    8.7578 H         1 <0>         0.0529
     56 O4         -1.9893    6.5057    7.2371 O.co2     1 <0>        -0.7551
@<TRIPOS>BOND
     1    1    2 1
     2    1   31 1
     3    1   32 1
     4    1   33 1
     5    2    7 ar
     6    2    3 ar
     7    3    4 ar
     8    3   34 1
     9    4    5 ar
    10    4   35 1
    11    5    6 ar
    12    5    8 1
    13    6    7 ar
    14    6   36 1
    15    7   37 1
    16    8    9 1
    17    8   38 1
    18    8   39 1
    19    9   15 1
    20    9   10 am
    21   10   11 2
    22   10   12 am
    23   12   13 1
    24   12   14 1
    25   14   15 2
    26   14   16 1
    27   16   17 1
    28   16   40 1
    29   16   41 1
    30   17   18 1
    31   17   42 1
    32   17   43 1
    33   18   19 1
    34   18   44 1
    35   18   45 1
    36   19   24 ar
    37   19   20 ar
    38   20   21 ar
    39   20   46 1
    40   21   22 ar
    41   21   47 1
    42   22   23 ar
    43   22   25 1
    44   23   24 ar
    45   23   48 1
    46   24   49 1
    47   25   26 1
    48   26   27 1
    49   26   28 1
    50   26   29 1
    51   27   50 1
    52   27   51 1
    53   27   52 1
    54   28   53 1
    55   28   54 1
    56   28   55 1
    57   29   30 2
    58   29   56 1
@<TRIPOS>MOLECULE
ZINC03819473
   47    48     0     0     0
SMALL
USER_CHARGES
2-ethoxy-3-[4-(5-phenylpent-2-en-4-ynoxy)phenyl]-propanoic acid
@<TRIPOS>ATOM
      1 C1          8.9534  -11.8219    0.1386 C.3       1 <0>        -0.1439
      2 C2         10.0927  -10.9407   -0.3774 C.3       1 <0>         0.0638
      3 O1         10.7011  -10.2575    0.7204 O.3       1 <0>        -0.3680
      4 C3         11.7831   -9.4027    0.3454 C.3       1 <0>         0.0586
      5 H1         11.6145   -9.0241   -0.6627 H         1 <0>         0.0559
      6 C4         11.8686   -8.2292    1.3233 C.3       1 <0>        -0.0612
      7 C5         10.6291   -7.3810    1.1996 C.ar      1 <0>        -0.0963
      8 C6          9.5243   -7.6547    1.9845 C.ar      1 <0>        -0.0620
      9 C7          8.3869   -6.8786    1.8730 C.ar      1 <0>        -0.1504
     10 C8          8.3538   -5.8239    0.9724 C.ar      1 <0>         0.1111
     11 C9          9.4617   -5.5548    0.1819 C.ar      1 <0>        -0.2084
     12 C10        10.5985   -6.3306    0.3010 C.ar      1 <0>        -0.0808
     13 O2          7.2361   -5.0589    0.8609 O.3       1 <0>        -0.3145
     14 C11         7.2734   -3.9900   -0.0868 C.3       1 <0>         0.0882
     15 C12         5.9561   -3.2582   -0.0708 C.2       1 <0>        -0.1090
     16 C13         5.9341   -1.9262   -0.0638 C.2       1 <0>        -0.0491
     17 C14         4.6824   -1.2309   -0.0486 C.1       1 <0>        -0.1163
     18 C15         3.6562   -0.6608   -0.0361 C.1       1 <0>        -0.1291
     19 C16         2.4045    0.0346   -0.0208 C.ar      1 <0>         0.0155
     20 C17         1.2036   -0.6808   -0.0131 C.ar      1 <0>        -0.0954
     21 C18         0.0021   -0.0041    0.0020 C.ar      1 <0>        -0.1189
     22 C19        -0.0167    1.3797    0.0096 C.ar      1 <0>        -0.1117
     23 C20         1.1681    2.0948    0.0022 C.ar      1 <0>        -0.1195
     24 C21         2.3774    1.4322   -0.0130 C.ar      1 <0>        -0.0959
     25 C22        13.0733  -10.1808    0.3805 C.2       1 <0>         0.4447
     26 O3         13.0806  -11.3208    0.7806 O.co2     1 <0>        -0.6223
     27 H2          8.2097  -11.1997    0.6366 H         1 <0>         0.0558
     28 H3          8.4893  -12.3430   -0.6987 H         1 <0>         0.0609
     29 H4          9.3495  -12.5508    0.8457 H         1 <0>         0.0625
     30 H5          9.6966  -10.2117   -1.0844 H         1 <0>         0.0329
     31 H6         10.8364  -11.5628   -0.8753 H         1 <0>         0.0458
     32 H7         12.7463   -7.6260    1.0913 H         1 <0>         0.0912
     33 H8         11.9482   -8.6098    2.3416 H         1 <0>         0.0750
     34 H9          9.5504   -8.4762    2.6852 H         1 <0>         0.1315
     35 H10         7.5242   -7.0926    2.4866 H         1 <0>         0.1259
     36 H11         9.4368   -4.7370   -0.5231 H         1 <0>         0.1229
     37 H12        11.4628   -6.1188   -0.3110 H         1 <0>         0.1257
     38 H13         7.4525   -4.3940   -1.0832 H         1 <0>         0.0790
     39 H14         8.0756   -3.3001    0.1751 H         1 <0>         0.0723
     40 H15         5.0299   -3.8136   -0.0649 H         1 <0>         0.1257
     41 H16         6.8604   -1.3709   -0.0697 H         1 <0>         0.1400
     42 H17         1.2167   -1.7607   -0.0194 H         1 <0>         0.1275
     43 H18        -0.9266   -0.5554    0.0076 H         1 <0>         0.1284
     44 H19        -0.9608    1.9041    0.0169 H         1 <0>         0.1257
     45 H20         1.1455    3.1746    0.0078 H         1 <0>         0.1281
     46 H21         3.3012    1.9916   -0.0193 H         1 <0>         0.1272
     47 O4         14.2143   -9.6072   -0.0328 O.co2     1 <0>        -0.7689
@<TRIPOS>BOND
     1    1    2 1
     2    1   27 1
     3    1   28 1
     4    1   29 1
     5    2    3 1
     6    2   30 1
     7    2   31 1
     8    3    4 1
     9    4    5 1
    10    4    6 1
    11    4   25 1
    12    6    7 1
    13    6   32 1
    14    6   33 1
    15    7   12 ar
    16    7    8 ar
    17    8    9 ar
    18    8   34 1
    19    9   10 ar
    20    9   35 1
    21   10   11 ar
    22   10   13 1
    23   11   12 ar
    24   11   36 1
    25   12   37 1
    26   13   14 1
    27   14   15 1
    28   14   38 1
    29   14   39 1
    30   15   16 2
    31   15   40 1
    32   16   17 1
    33   16   41 1
    34   17   18 3
    35   18   19 1
    36   19   24 ar
    37   19   20 ar
    38   20   21 ar
    39   20   42 1
    40   21   22 ar
    41   21   43 1
    42   22   23 ar
    43   22   44 1
    44   23   24 ar
    45   23   45 1
    46   24   46 1
    47   25   26 2
    48   25   47 1
@<TRIPOS>MOLECULE
ZINC08387390
   68    71     0     0     0
SMALL
USER_CHARGES
ethyl 9-[(4-methoxycarbonylphenyl)carbamoyl]-8-[2-(4-methoxyphenyl)acetyl]amino-7-thia-4-azabicyclo[4.3.0]nona-8,10-diene-4-carboxylate
@<TRIPOS>ATOM
      1 C1          5.8753  -10.4096    3.9304 C.3       1 <0>        -0.1541
      2 C2          5.2694   -9.1166    4.4797 C.3       1 <0>         0.0820
      3 O1          4.3352   -8.5704    3.5115 O.3       1 <0>        -0.3689
      4 C3          3.7109   -7.4246    3.8435 C.2       1 <0>         0.6579
      5 O2          3.9404   -6.8956    4.9131 O.2       1 <0>        -0.5665
      6 N1          2.8315   -6.8645    2.9895 N.am      1 <0>        -0.5946
      7 C4          2.1341   -5.6135    3.3242 C.3       1 <0>         0.1307
      8 C5          2.5575   -4.5141    2.3483 C.3       1 <0>        -0.0794
      9 C6          2.4782   -5.0499    0.9245 C.2       1 <0>        -0.0490
     10 C7          2.4738   -6.3771    0.6730 C.2       1 <0>        -0.2455
     11 S1          2.3828   -6.5071   -1.0894 S.3       1 <0>         0.2725
     12 C8          2.3415   -4.8222   -1.4916 C.2       1 <0>         0.0853
     13 C9          2.4074   -4.1999   -0.2528 C.2       1 <0>        -0.2373
     14 C10         2.3999   -2.7388   -0.1355 C.2       1 <0>         0.5846
     15 O3          3.4492   -2.1222   -0.1427 O.2       1 <0>        -0.5000
     16 N2          1.2309   -2.0781   -0.0195 N.am      1 <0>        -0.6676
     17 C11         1.2166   -0.6852   -0.0038 C.ar      1 <0>         0.1798
     18 C12         0.1630    0.0050   -0.5960 C.ar      1 <0>        -0.1574
     19 C13         0.1452    1.3811   -0.5816 C.ar      1 <0>        -0.0318
     20 C14         1.1875    2.0857    0.0285 C.ar      1 <0>        -0.1444
     21 C15         2.2443    1.3891    0.6224 C.ar      1 <0>        -0.0390
     22 C16         2.2556    0.0130    0.6044 C.ar      1 <0>        -0.1362
     23 C17         1.1721    3.5600    0.0454 C.2       1 <0>         0.5096
     24 O4          0.2530    4.1640   -0.4712 O.2       1 <0>        -0.5066
     25 O5          2.1774    4.2375    0.6339 O.3       1 <0>        -0.3552
     26 C18         2.0963    5.6871    0.6127 C.3       1 <0>         0.0365
     27 N3          2.2639   -4.2376   -2.7465 N.am      1 <0>        -0.6237
     28 C19         2.2073   -5.0118   -3.8482 C.2       1 <0>         0.5089
     29 O6          2.2242   -6.2199   -3.7420 O.2       1 <0>        -0.4824
     30 C20         2.1229   -4.3764   -5.2121 C.3       1 <0>        -0.0882
     31 C21         2.0718   -5.4529   -6.2655 C.ar      1 <0>        -0.1168
     32 C22         3.2441   -5.9313   -6.8210 C.ar      1 <0>        -0.0604
     33 C23         3.2002   -6.9220   -7.7827 C.ar      1 <0>        -0.2062
     34 C24         1.9778   -7.4290   -8.1992 C.ar      1 <0>         0.1343
     35 C25         0.8027   -6.9434   -7.6444 C.ar      1 <0>        -0.1499
     36 C26         0.8523   -5.9566   -6.6789 C.ar      1 <0>        -0.0611
     37 O7          1.9317   -8.4001   -9.1488 O.3       1 <0>        -0.3169
     38 C27         3.1808   -8.8522   -9.6756 C.3       1 <0>         0.0260
     39 C28         2.5324   -7.4833    1.6830 C.3       1 <0>         0.2041
     40 H1          5.0811  -11.1325    3.7439 H         1 <0>         0.0676
     41 H2          6.4000  -10.1979    2.9987 H         1 <0>         0.0672
     42 H3          6.5765  -10.8197    4.6572 H         1 <0>         0.0837
     43 H4          6.0636   -8.3937    4.6661 H         1 <0>         0.0714
     44 H5          4.7447   -9.3283    5.4113 H         1 <0>         0.0721
     45 H6          2.3910   -5.3154    4.3406 H         1 <0>         0.1057
     46 H7          1.0574   -5.7677    3.2525 H         1 <0>         0.0832
     47 H8          3.5809   -4.2084    2.5659 H         1 <0>         0.0878
     48 H9          1.8916   -3.6574    2.4526 H         1 <0>         0.0886
     49 H10         0.3995   -2.5725    0.0531 H         1 <0>         0.4167
     50 H11        -0.6417   -0.5399   -1.0671 H         1 <0>         0.1374
     51 H12        -0.6705    1.9161   -1.0450 H         1 <0>         0.1432
     52 H13         3.0506    1.9302    1.0952 H         1 <0>         0.1431
     53 H14         3.0716   -0.5257    1.0630 H         1 <0>         0.1486
     54 H15         2.0740    6.0348   -0.4201 H         1 <0>         0.0647
     55 H16         1.1885    6.0078    1.1237 H         1 <0>         0.0648
     56 H17         2.9657    6.1070    1.1187 H         1 <0>         0.1043
     57 H18         2.2504   -3.2714   -2.8314 H         1 <0>         0.4207
     58 H19         1.2225   -3.7653   -5.2732 H         1 <0>         0.1124
     59 H20         2.9994   -3.7494   -5.3757 H         1 <0>         0.1118
     60 H21         4.1952   -5.5331   -6.4995 H         1 <0>         0.1238
     61 H22         4.1164   -7.2984   -8.2131 H         1 <0>         0.1298
     62 H23        -0.1501   -7.3362   -7.9672 H         1 <0>         0.1329
     63 H24        -0.0622   -5.5784   -6.2464 H         1 <0>         0.1284
     64 H25         3.7045   -8.0153  -10.1377 H         1 <0>         0.0565
     65 H26         3.7891   -9.2604   -8.8685 H         1 <0>         0.0569
     66 H27         3.0015   -9.6256  -10.4224 H         1 <0>         0.1019
     67 H28         3.3202   -8.1879    1.4167 H         1 <0>         0.1082
     68 H29         1.5723   -7.9975    1.7267 H         1 <0>         0.0938
@<TRIPOS>BOND
     1    1    2 1
     2    1   40 1
     3    1   41 1
     4    1   42 1
     5    2    3 1
     6    2   43 1
     7    2   44 1
     8    3    4 1
     9    4    5 2
    10    4    6 am
    11    6   39 1
    12    6    7 1
    13    7    8 1
    14    7   45 1
    15    7   46 1
    16    8    9 1
    17    8   47 1
    18    8   48 1
    19    9   13 1
    20    9   10 2
    21   10   11 1
    22   10   39 1
    23   11   12 1
    24   12   13 2
    25   12   27 1
    26   13   14 1
    27   14   15 2
    28   14   16 am
    29   16   17 1
    30   16   49 1
    31   17   22 ar
    32   17   18 ar
    33   18   19 ar
    34   18   50 1
    35   19   20 ar
    36   19   51 1
    37   20   21 ar
    38   20   23 1
    39   21   22 ar
    40   21   52 1
    41   22   53 1
    42   23   24 2
    43   23   25 1
    44   25   26 1
    45   26   54 1
    46   26   55 1
    47   26   56 1
    48   27   28 am
    49   27   57 1
    50   28   29 2
    51   28   30 1
    52   30   31 1
    53   30   58 1
    54   30   59 1
    55   31   36 ar
    56   31   32 ar
    57   32   33 ar
    58   32   60 1
    59   33   34 ar
    60   33   61 1
    61   34   35 ar
    62   34   37 1
    63   35   36 ar
    64   35   62 1
    65   36   63 1
    66   37   38 1
    67   38   64 1
    68   38   65 1
    69   38   66 1
    70   39   67 1
    71   39   68 1
@<TRIPOS>MOLECULE
ZINC09260679
   51    54     0     0     0
SMALL
USER_CHARGES
4-[2-[[4-ethyl-5-(7-methoxybenzofuran-2-yl)-1,2,4-triazol-3-yl]sulfanyl]acetyl]aminobenzoic acid
@<TRIPOS>ATOM
      1 C1         -1.3325    2.0919   -1.5066 C.3       1 <0>        -0.1682
      2 C2         -0.4638    1.4659   -0.4137 C.3       1 <0>         0.0981
      3 N1         -1.0058    1.8163    0.9014 N.pl3     1 <0>        -0.4487
      4 C3         -1.9405    1.1143    1.6308 C.2       1 <0>         0.2407
      5 N2         -2.1384    1.7818    2.7465 N.2       1 <0>        -0.2396
      6 N3         -1.4030    2.8354    2.7630 N.2       1 <0>        -0.2861
      7 C4         -0.6857    2.9040    1.6630 C.2       1 <0>         0.1564
      8 S1          0.4704    4.1669    1.2469 S.3       1 <0>         0.0998
      9 C5          0.3345    5.2142    2.7168 C.3       1 <0>        -0.1494
     10 C6          1.2622    6.3940    2.5805 C.2       1 <0>         0.5285
     11 O1          1.9477    6.5148    1.5874 O.2       1 <0>        -0.5032
     12 N4          1.3300    7.3149    3.5623 N.am      1 <0>        -0.6572
     13 C7          2.2657    8.3456    3.4877 C.ar      1 <0>         0.1258
     14 C8          3.5066    8.1155    2.9015 C.ar      1 <0>        -0.1336
     15 C9          4.4311    9.1322    2.8219 C.ar      1 <0>        -0.0600
     16 C10         4.1261   10.3942    3.3404 C.ar      1 <0>        -0.1208
     17 C11         2.8804   10.6203    3.9335 C.ar      1 <0>        -0.0695
     18 C12         1.9588    9.6004    4.0049 C.ar      1 <0>        -0.1561
     19 C13         5.1159   11.4845    3.2616 C.2       1 <0>         0.4888
     20 O2          4.8492   12.5809    3.7123 O.co2     1 <0>        -0.6325
     21 C14        -2.5931   -0.1439    1.2364 C.2       1 <0>         0.1029
     22 C15        -3.2776   -0.9651    2.0737 C.2       1 <0>        -0.1356
     23 C16        -3.7482   -2.0814    1.2519 C.ar      1 <0>        -0.0922
     24 C17        -4.4952   -3.2336    1.5112 C.ar      1 <0>        -0.1010
     25 C18        -4.7687   -4.1085    0.4973 C.ar      1 <0>        -0.0928
     26 C19        -4.3096   -3.8612   -0.7882 C.ar      1 <0>        -0.1862
     27 C20        -3.5688   -2.7264   -1.0666 C.ar      1 <0>         0.1454
     28 C21        -3.2791   -1.8220   -0.0469 C.ar      1 <0>         0.0380
     29 O3         -2.5968   -0.6586   -0.0097 O.3       1 <0>        -0.1793
     30 O4         -3.1250   -2.4945   -2.3307 O.3       1 <0>        -0.3130
     31 C22        -3.4603   -3.4652   -3.3243 C.3       1 <0>         0.0259
     32 H1         -0.9292    1.8312   -2.4851 H         1 <0>         0.0865
     33 H2         -2.3515    1.7146   -1.4214 H         1 <0>         0.0658
     34 H3         -1.3355    3.1759   -1.3920 H         1 <0>         0.0697
     35 H4         -0.4607    0.3819   -0.5284 H         1 <0>         0.1042
     36 H5          0.5553    1.8432   -0.4990 H         1 <0>         0.1051
     37 H6         -0.6915    5.5684    2.8169 H         1 <0>         0.1307
     38 H7          0.6076    4.6374    3.6004 H         1 <0>         0.1318
     39 H8          0.7278    7.2605    4.3207 H         1 <0>         0.4109
     40 H9          3.7431    7.1391    2.5052 H         1 <0>         0.1279
     41 H10         5.3924    8.9541    2.3631 H         1 <0>         0.1348
     42 H11         2.6414   11.5941    4.3347 H         1 <0>         0.1319
     43 H12         0.9961    9.7744    4.4626 H         1 <0>         0.1202
     44 H13        -3.4433   -0.8223    3.1313 H         1 <0>         0.1750
     45 H14        -4.8556   -3.4320    2.5097 H         1 <0>         0.1351
     46 H15        -5.3461   -4.9987    0.6985 H         1 <0>         0.1355
     47 H16        -4.5329   -4.5614   -1.5796 H         1 <0>         0.1421
     48 H17        -3.0460   -4.4329   -3.0414 H         1 <0>         0.0588
     49 H18        -4.5446   -3.5436   -3.4043 H         1 <0>         0.0587
     50 H19        -3.0462   -3.1596   -4.2852 H         1 <0>         0.1037
     51 O5          6.3161   11.2649    2.6896 O.co2     1 <0>        -0.7541
@<TRIPOS>BOND
     1    1    2 1
     2    1   32 1
     3    1   33 1
     4    1   34 1
     5    2    3 1
     6    2   35 1
     7    2   36 1
     8    3    7 1
     9    3    4 1
    10    4    5 2
    11    4   21 1
    12    5    6 1
    13    6    7 2
    14    7    8 1
    15    8    9 1
    16    9   10 1
    17    9   37 1
    18    9   38 1
    19   10   11 2
    20   10   12 am
    21   12   13 1
    22   12   39 1
    23   13   18 ar
    24   13   14 ar
    25   14   15 ar
    26   14   40 1
    27   15   16 ar
    28   15   41 1
    29   16   17 ar
    30   16   19 1
    31   17   18 ar
    32   17   42 1
    33   18   43 1
    34   19   20 2
    35   19   51 1
    36   21   29 1
    37   21   22 2
    38   22   23 1
    39   22   44 1
    40   23   28 ar
    41   23   24 ar
    42   24   25 ar
    43   24   45 1
    44   25   26 ar
    45   25   46 1
    46   26   27 ar
    47   26   47 1
    48   27   28 ar
    49   27   30 1
    50   28   29 1
    51   30   31 1
    52   31   48 1
    53   31   49 1
    54   31   50 1
@<TRIPOS>MOLECULE
ZINC17654911
   81    84     0     0     0
SMALL
USER_CHARGES

@<TRIPOS>ATOM
      1 C1         -0.9475    1.7012    0.1845 C.3       1 <0>        -0.1374
      2 C2         -0.6851    0.1942    0.1489 C.3       1 <0>        -0.1442
      3 C3         -1.9975   -0.5424    0.0706 C.2       1 <0>         0.5104
      4 O1         -3.0400    0.0769    0.0458 O.2       1 <0>        -0.5386
      5 N1         -2.0127   -1.8894    0.0283 N.am      1 <0>        -0.7263
      6 C4         -3.2885   -2.6055   -0.0478 C.3       1 <0>         0.1050
      7 C5         -3.0247   -4.1106   -0.1259 C.3       1 <0>         0.1525
      8 H1         -2.4635   -4.3345   -1.0331 H         1 <0>         0.0866
      9 C6         -4.3575   -4.8613   -0.1523 C.3       1 <0>        -0.0834
     10 C7         -4.1014   -6.3328   -0.3527 C.ar      1 <0>        -0.1173
     11 C8         -4.0399   -6.8548   -1.6315 C.ar      1 <0>        -0.0754
     12 C9         -3.8056   -8.2034   -1.8178 C.ar      1 <0>        -0.1486
     13 C10        -3.6316   -9.0341   -0.7204 C.ar      1 <0>         0.1318
     14 C11        -3.6933   -8.5078    0.5617 C.ar      1 <0>        -0.2053
     15 C12        -3.9227   -7.1576    0.7426 C.ar      1 <0>        -0.0663
     16 O2         -3.4015  -10.3613   -0.9010 O.3       1 <0>        -0.3136
     17 C13        -3.2319  -11.1562    0.2743 C.3       1 <0>         0.0683
     18 C14        -2.9845  -12.6120   -0.1259 C.3       1 <0>        -0.0337
     19 C15        -2.8056  -13.4503    1.1136 C.2       1 <0>        -0.0104
     20 C16        -1.6417  -13.6974    1.7418 C.2       1 <0>        -0.0322
     21 O3         -1.9178  -14.4845    2.8005 O.3       1 <0>        -0.1920
     22 C17        -3.2431  -14.7092    2.8080 C.2       1 <0>         0.2361
     23 N2         -3.7792  -14.0781    1.7901 N.2       1 <0>        -0.4618
     24 C18        -3.9745  -15.5257    3.7998 C.ar      1 <0>        -0.0222
     25 C19        -5.3567  -15.6871    3.6922 C.ar      1 <0>        -0.0702
     26 C20        -6.0332  -16.4508    4.6209 C.ar      1 <0>        -0.1206
     27 C21        -5.3446  -17.0560    5.6571 C.ar      1 <0>        -0.0981
     28 C22        -3.9745  -16.9001    5.7694 C.ar      1 <0>        -0.1203
     29 C23        -3.2852  -16.1433    4.8444 C.ar      1 <0>        -0.0893
     30 C24        -0.2821  -13.1891    1.3367 C.3       1 <0>        -0.0727
     31 N3         -2.2500   -4.5319    1.0440 N.pl3     1 <0>        -0.7299
     32 C25        -0.8858   -4.5122    1.0025 C.2       1 <0>         0.2602
     33 C26        -0.1900   -3.8476    1.9525 C.2       1 <0>        -0.3468
     34 C27        -0.8680   -3.2595    3.0427 C.2       1 <0>         0.4262
     35 O4         -2.0722   -3.4011    3.1590 O.2       1 <0>        -0.4690
     36 C28        -0.1154   -2.4709    4.0440 C.ar      1 <0>        -0.1208
     37 C29         1.2633   -2.3020    3.9104 C.ar      1 <0>        -0.0810
     38 C30         1.9590   -1.5659    4.8472 C.ar      1 <0>        -0.0820
     39 C31         1.2926   -0.9962    5.9176 C.ar      1 <0>        -0.1612
     40 C32        -0.0743   -1.1599    6.0557 C.ar      1 <0>        -0.0801
     41 C33        -0.7825   -1.8885    5.1224 C.ar      1 <0>        -0.0697
     42 C34         2.0590   -0.1942    6.9376 C.3       1 <0>         0.5063
     43 F1          2.0939    1.1481    6.5450 F         1 <0>        -0.1739
     44 F2          1.4294   -0.2996    8.1825 F         1 <0>        -0.1751
     45 F3          3.3651   -0.6865    7.0323 F         1 <0>        -0.1752
     46 C35        -0.1552   -5.2313   -0.1021 C.3       1 <0>        -0.1472
     47 H2          0.0017    2.2340    0.2411 H         1 <0>         0.0618
     48 H3         -1.4780    1.9991   -0.7199 H         1 <0>         0.0617
     49 H4         -1.5531    1.9440    1.0576 H         1 <0>         0.0611
     50 H5         -0.0795   -0.0486   -0.7242 H         1 <0>         0.0915
     51 H6         -0.1546   -0.1036    1.0533 H         1 <0>         0.0904
     52 H7         -1.1789   -2.3847    0.0482 H         1 <0>         0.3967
     53 H8         -3.8817   -2.3862    0.8399 H         1 <0>         0.0740
     54 H9         -3.8324   -2.2854   -0.9365 H         1 <0>         0.0761
     55 H10        -4.8794   -4.7087    0.7924 H         1 <0>         0.0830
     56 H11        -4.9706   -4.4845   -0.9710 H         1 <0>         0.0913
     57 H12        -4.1754   -6.2077   -2.4855 H         1 <0>         0.1293
     58 H13        -3.7584   -8.6108   -2.8169 H         1 <0>         0.1309
     59 H14        -3.5582   -9.1525    1.4177 H         1 <0>         0.1247
     60 H15        -3.9664   -6.7466    1.7403 H         1 <0>         0.1201
     61 H16        -2.3792  -10.7859    0.8434 H         1 <0>         0.0626
     62 H17        -4.1315  -11.0956    0.8868 H         1 <0>         0.0668
     63 H18        -3.8372  -12.9823   -0.6950 H         1 <0>         0.0956
     64 H19        -2.0849  -12.6726   -0.7385 H         1 <0>         0.0934
     65 H20        -5.8955  -15.2148    2.8841 H         1 <0>         0.1382
     66 H21        -7.1028  -16.5761    4.5390 H         1 <0>         0.1335
     67 H22        -5.8790  -17.6525    6.3816 H         1 <0>         0.1300
     68 H23        -3.4428  -17.3749    6.5808 H         1 <0>         0.1321
     69 H24        -2.2150  -16.0260    4.9306 H         1 <0>         0.1303
     70 H25        -0.0923  -12.2322    1.8229 H         1 <0>         0.0871
     71 H26         0.4794  -13.9078    1.6393 H         1 <0>         0.0829
     72 H27        -0.2502  -13.0597    0.2549 H         1 <0>         0.0958
     73 H28        -2.7066   -4.8249    1.8482 H         1 <0>         0.4125
     74 H29         0.8844   -3.7665    1.8775 H         1 <0>         0.1359
     75 H30         1.7847   -2.7469    3.0758 H         1 <0>         0.1439
     76 H31         3.0261   -1.4344    4.7450 H         1 <0>         0.1415
     77 H32        -0.5887   -0.7130    6.8936 H         1 <0>         0.1408
     78 H33        -1.8502   -2.0119    5.2289 H         1 <0>         0.1434
     79 H34         0.0703   -4.5298   -0.9053 H         1 <0>         0.0819
     80 H35         0.7736   -5.6479    0.2877 H         1 <0>         0.0873
     81 H36        -0.7809   -6.0362   -0.4877 H         1 <0>         0.0805
@<TRIPOS>BOND
     1    1    2 1
     2    1   47 1
     3    1   48 1
     4    1   49 1
     5    2    3 1
     6    2   50 1
     7    2   51 1
     8    3    4 2
     9    3    5 am
    10    5    6 1
    11    5   52 1
    12    6    7 1
    13    6   53 1
    14    6   54 1
    15    7    8 1
    16    7    9 1
    17    7   31 1
    18    9   10 1
    19    9   55 1
    20    9   56 1
    21   10   15 ar
    22   10   11 ar
    23   11   12 ar
    24   11   57 1
    25   12   13 ar
    26   12   58 1
    27   13   14 ar
    28   13   16 1
    29   14   15 ar
    30   14   59 1
    31   15   60 1
    32   16   17 1
    33   17   18 1
    34   17   61 1
    35   17   62 1
    36   18   19 1
    37   18   63 1
    38   18   64 1
    39   19   23 1
    40   19   20 2
    41   20   21 1
    42   20   30 1
    43   21   22 1
    44   22   23 2
    45   22   24 1
    46   24   29 ar
    47   24   25 ar
    48   25   26 ar
    49   25   65 1
    50   26   27 ar
    51   26   66 1
    52   27   28 ar
    53   27   67 1
    54   28   29 ar
    55   28   68 1
    56   29   69 1
    57   30   70 1
    58   30   71 1
    59   30   72 1
    60   31   32 1
    61   31   73 1
    62   32   33 2
    63   32   46 1
    64   33   34 1
    65   33   74 1
    66   34   35 2
    67   34   36 1
    68   36   41 ar
    69   36   37 ar
    70   37   38 ar
    71   37   75 1
    72   38   39 ar
    73   38   76 1
    74   39   40 ar
    75   39   42 1
    76   40   41 ar
    77   40   77 1
    78   41   78 1
    79   42   43 1
    80   42   44 1
    81   42   45 1
    82   46   79 1
    83   46   80 1
    84   46   81 1
@<TRIPOS>MOLECULE
ZINC17654911
   82    85     0     0     0
SMALL
USER_CHARGES
N-[(2S)-2-[[(Z)-1-methyl-3-oxo-3-[4-(trifluoromethyl)phenyl]prop-1-enyl]amino]-3-[4-[2-(5-methyl-2-phenyl-oxazol-4-yl)ethoxy]phenyl]propyl]propanamide
@<TRIPOS>ATOM
      1 C1         -4.3498    0.9873   10.9531 C.3       1 <0>        -0.1440
      2 C2         -4.8674    1.0336    9.5140 C.3       1 <0>        -0.1444
      3 C3         -4.7682    2.4429    8.9896 C.2       1 <0>         0.5100
      4 O1         -4.3267    3.3236    9.6971 O.2       1 <0>        -0.5113
      5 N1         -5.1697    2.7248    7.7343 N.am      1 <0>        -0.7577
      6 C4         -5.0733    4.0947    7.2244 C.3       1 <0>         0.1021
      7 C5         -5.7175    4.1699    5.8388 C.3       1 <0>         0.0867
      8 H1         -5.1781    3.5179    5.1515 H         1 <0>         0.1320
      9 C6         -5.6594    5.6105    5.3266 C.3       1 <0>        -0.0859
     10 C7         -6.1817    5.6629    3.9140 C.ar      1 <0>        -0.1544
     11 C8         -7.5275    5.8796    3.6834 C.ar      1 <0>        -0.0798
     12 C9         -8.0088    5.9280    2.3894 C.ar      1 <0>        -0.1491
     13 C10        -7.1403    5.7592    1.3208 C.ar      1 <0>         0.1487
     14 C11        -5.7912    5.5362    1.5550 C.ar      1 <0>        -0.2037
     15 C12        -5.3141    5.4939    2.8508 C.ar      1 <0>        -0.0648
     16 O2         -7.6113    5.8066    0.0469 O.3       1 <0>        -0.3089
     17 C13        -6.6599    5.6245   -1.0037 C.3       1 <0>         0.0657
     18 C14        -7.3707    5.7095   -2.3559 C.3       1 <0>        -0.0333
     19 C15        -6.3673    5.5175   -3.4638 C.2       1 <0>        -0.0140
     20 C16        -6.0168    4.3440   -4.0207 C.2       1 <0>        -0.0333
     21 O3         -5.1010    4.6105   -4.9729 O.3       1 <0>        -0.1904
     22 C17        -4.9022    5.9399   -4.9877 C.2       1 <0>         0.2439
     23 N2         -5.6690    6.4869   -4.0741 N.2       1 <0>        -0.4645
     24 C18        -3.9747    6.6641   -5.8825 C.ar      1 <0>        -0.0278
     25 C19        -3.8636    8.0530   -5.8012 C.ar      1 <0>        -0.0695
     26 C20        -2.9920    8.7221   -6.6354 C.ar      1 <0>        -0.1205
     27 C21        -2.2375    8.0207   -7.5589 C.ar      1 <0>        -0.0947
     28 C22        -2.3472    6.6443   -7.6486 C.ar      1 <0>        -0.1196
     29 C23        -3.2108    5.9624   -6.8164 C.ar      1 <0>        -0.0880
     30 C24        -6.5497    2.9841   -3.6492 C.3       1 <0>        -0.0720
     31 C25        -7.5527    2.4489    5.7711 C.2       1 <0>         0.3331
     32 C26        -8.8705    2.1630    5.8723 C.3       1 <0>        -0.1933
     33 C27        -9.8069    3.2042    6.0539 C.2       1 <0>         0.4300
     34 O4         -9.4405    4.3655    6.0216 O.2       1 <0>        -0.4424
     35 C28       -11.2338    2.8846    6.2836 C.ar      1 <0>        -0.1580
     36 C29       -11.6578    1.5555    6.3154 C.ar      1 <0>        -0.0666
     37 C30       -12.9883    1.2641    6.5346 C.ar      1 <0>        -0.0788
     38 C31       -13.9033    2.2866    6.7122 C.ar      1 <0>        -0.1263
     39 C32       -13.4902    3.6066    6.6765 C.ar      1 <0>        -0.0779
     40 C33       -12.1617    3.9113    6.4634 C.ar      1 <0>        -0.0427
     41 C34       -15.3562    1.9612    6.9451 C.3       1 <0>         0.5029
     42 F1        -16.0216    1.8929    5.7162 F         1 <0>        -0.1675
     43 F2        -15.4591    0.7293    7.6001 F         1 <0>        -0.1693
     44 F3        -15.9369    2.9593    7.7348 F         1 <0>        -0.1689
     45 C35        -6.5625    1.3487    5.4880 C.3       1 <0>        -0.1756
     46 H2         -4.4216   -0.0320   11.3323 H         1 <0>         0.0696
     47 H3         -3.3091    1.3108   10.9753 H         1 <0>         0.0662
     48 H4         -4.9499    1.6501   11.5765 H         1 <0>         0.0644
     49 H5         -5.9080    0.7101    9.4916 H         1 <0>         0.0934
     50 H6         -4.2675    0.3707    8.8904 H         1 <0>         0.0986
     51 H7         -5.5228    2.0204    7.1684 H         1 <0>         0.3870
     52 H8         -4.0244    4.3830    7.1536 H         1 <0>         0.1092
     53 H9         -5.5912    4.7724    7.9032 H         1 <0>         0.0928
     54 H10        -4.6277    5.9615    5.3459 H         1 <0>         0.1174
     55 H11        -6.2721    6.2477    5.9644 H         1 <0>         0.0955
     56 H12        -8.2032    6.0113    4.5156 H         1 <0>         0.1269
     57 H13        -9.0601    6.0976    2.2098 H         1 <0>         0.1353
     58 H14        -5.1138    5.4001    0.7250 H         1 <0>         0.1338
     59 H15        -4.2631    5.3248    3.0335 H         1 <0>         0.1304
     60 H16        -6.1887    4.6468   -0.9018 H         1 <0>         0.0651
     61 H17        -5.8989    6.4025   -0.9436 H         1 <0>         0.0715
     62 H18        -7.8418    6.6872   -2.4578 H         1 <0>         0.0977
     63 H19        -8.1316    4.9315   -2.4159 H         1 <0>         0.0940
     64 H20        -4.4552    8.6022   -5.0839 H         1 <0>         0.1375
     65 H21        -2.9017    9.7964   -6.5704 H         1 <0>         0.1345
     66 H22        -1.5598    8.5497   -8.2124 H         1 <0>         0.1317
     67 H23        -1.7552    6.1027   -8.3714 H         1 <0>         0.1335
     68 H24        -3.2953    4.8882   -6.8871 H         1 <0>         0.1305
     69 H25        -7.4292    2.7611   -4.2533 H         1 <0>         0.0905
     70 H26        -5.7830    2.2311   -3.8319 H         1 <0>         0.0835
     71 H27        -6.8222    2.9765   -2.5939 H         1 <0>         0.0899
     72 H28        -8.7392    1.9997    4.8945 H         1 <0>         0.1835
     73 H29        -9.0094    1.4805    6.5898 H         1 <0>         0.1884
     74 H30       -10.9452    0.7566    6.1727 H         1 <0>         0.1506
     75 H31       -13.3170    0.2358    6.5639 H         1 <0>         0.1548
     76 H32       -14.2094    4.4003    6.8162 H         1 <0>         0.1543
     77 H33       -11.8404    4.9420    6.4361 H         1 <0>         0.1535
     78 H34        -6.1807    1.0141    6.3495 H         1 <0>         0.1216
     79 H35        -7.0656    0.5312    4.9716 H         1 <0>         0.1453
     80 H36        -5.7595    1.7353    4.8604 H         1 <0>         0.1270
     81 N3         -7.1681    3.7864    5.9392 N.pl3     1 <0>        -0.5679
     82 H37        -7.8768    4.5042    6.1310 H         1 <0>         0.4525
@<TRIPOS>BOND
     1    1    2 1
     2    1   46 1
     3    1   47 1
     4    1   48 1
     5    2    3 1
     6    2   49 1
     7    2   50 1
     8    3    4 2
     9    3    5 am
    10    5    6 1
    11    5   51 1
    12    6    7 1
    13    6   52 1
    14    6   53 1
    15    7    8 1
    16    7    9 1
    17    7   81 1
    18    9   10 1
    19    9   54 1
    20    9   55 1
    21   10   15 ar
    22   10   11 ar
    23   11   12 ar
    24   11   56 1
    25   12   13 ar
    26   12   57 1
    27   13   14 ar
    28   13   16 1
    29   14   15 ar
    30   14   58 1
    31   15   59 1
    32   16   17 1
    33   17   18 1
    34   17   60 1
    35   17   61 1
    36   18   19 1
    37   18   62 1
    38   18   63 1
    39   19   23 1
    40   19   20 2
    41   20   21 1
    42   20   30 1
    43   21   22 1
    44   22   23 2
    45   22   24 1
    46   24   29 ar
    47   24   25 ar
    48   25   26 ar
    49   25   64 1
    50   26   27 ar
    51   26   65 1
    52   27   28 ar
    53   27   66 1
    54   28   29 ar
    55   28   67 1
    56   29   68 1
    57   30   69 1
    58   30   70 1
    59   30   71 1
    60   31   32 1
    61   31   45 1
    62   31   81 2
    63   32   33 1
    64   32   73 1
    65   32   72 1
    66   33   34 2
    67   33   35 1
    68   35   40 ar
    69   35   36 ar
    70   36   37 ar
    71   36   74 1
    72   37   38 ar
    73   37   75 1
    74   38   39 ar
    75   38   41 1
    76   39   40 ar
    77   39   76 1
    78   40   77 1
    79   41   42 1
    80   41   43 1
    81   41   44 1
    82   45   79 1
    83   45   80 1
    84   45   78 1
    85   81   82 1
@<TRIPOS>MOLECULE
ZINC01485983
   53    56     0     0     0
SMALL
USER_CHARGES
2-methoxy-3-[4-[2-(5-methyl-2-phenyl-oxazol-4-yl)ethoxy]benzothiophen-7-yl]-propanoic acid
@<TRIPOS>ATOM
      1 C1          7.5215    0.3346   -2.5913 C.3       1 <0>        -0.0725
      2 C2          7.9045    0.5922   -1.1567 C.2       1 <0>        -0.0319
      3 C3          7.2600    0.1404   -0.0656 C.2       1 <0>        -0.0070
      4 N1          7.9201    0.5841    1.0148 N.2       1 <0>        -0.4589
      5 C4          8.9461    1.2981    0.6157 C.2       1 <0>         0.2303
      6 O1          8.9549    1.3200   -0.7284 O.3       1 <0>        -0.1932
      7 C5          9.9279    1.9659    1.4963 C.ar      1 <0>        -0.0178
      8 C6          9.8041    1.8705    2.8832 C.ar      1 <0>        -0.0703
      9 C7         10.7270    2.4914    3.6994 C.ar      1 <0>        -0.1204
     10 C8         11.7670    3.2169    3.1459 C.ar      1 <0>        -0.1008
     11 C9         11.8921    3.3202    1.7719 C.ar      1 <0>        -0.1213
     12 C10        10.9793    2.6994    0.9444 C.ar      1 <0>        -0.0904
     13 C11         6.0207   -0.7171   -0.0583 C.3       1 <0>        -0.0337
     14 C12         4.7806    0.1790   -0.0422 C.3       1 <0>         0.0658
     15 O2          3.6055   -0.6341   -0.0353 O.3       1 <0>        -0.3118
     16 C13         2.4095    0.0106   -0.0209 C.ar      1 <0>         0.1609
     17 C14         2.3755    1.3850   -0.0132 C.ar      1 <0>        -0.2171
     18 C15         1.1724    2.0766    0.0020 C.ar      1 <0>        -0.0601
     19 C16        -0.0166    1.3750    0.0096 C.ar      1 <0>        -0.0593
     20 C17         0.0021   -0.0041    0.0020 C.ar      1 <0>        -0.0619
     21 C18         1.2054   -0.7401   -0.0134 C.ar      1 <0>        -0.1212
     22 C19         1.0334   -2.1855   -0.0195 C.2       1 <0>        -0.1275
     23 C20        -0.2046   -2.6993   -0.0105 C.2       1 <0>        -0.1874
     24 S1         -1.2534   -1.2580    0.0073 S.3       1 <0>         0.0883
     25 C21        -1.3303    2.1134    0.0198 C.3       1 <0>        -0.0612
     26 C22        -1.8297    2.2459    1.4600 C.3       1 <0>         0.0552
     27 H1         -1.0600    2.7197    2.0693 H         1 <0>         0.0571
     28 C23        -3.0785    3.0891    1.4830 C.2       1 <0>         0.4460
     29 O3         -4.1310    2.6008    1.8199 O.co2     1 <0>        -0.6208
     30 O4         -2.1209    0.9489    1.9843 O.3       1 <0>        -0.3632
     31 C24        -1.9359    0.8381    3.3970 C.3       1 <0>         0.0425
     32 H2          6.8443    1.1175   -2.9328 H         1 <0>         0.0889
     33 H3          8.4176    0.3332   -3.2120 H         1 <0>         0.0812
     34 H4          7.0257   -0.6331   -2.6669 H         1 <0>         0.0962
     35 H5          8.9902    1.3082    3.3165 H         1 <0>         0.1391
     36 H6         10.6350    2.4146    4.7727 H         1 <0>         0.1329
     37 H7         12.4844    3.7045    3.7892 H         1 <0>         0.1286
     38 H8         12.7064    3.8878    1.3461 H         1 <0>         0.1307
     39 H9         11.0782    2.7805   -0.1280 H         1 <0>         0.1301
     40 H10         6.0226   -1.3508    0.8285 H         1 <0>         0.0946
     41 H11         6.0059   -1.3418   -0.9514 H         1 <0>         0.0926
     42 H12         4.7788    0.8127   -0.9290 H         1 <0>         0.0632
     43 H13         4.7954    0.8038    0.8508 H         1 <0>         0.0672
     44 H14         3.3035    1.9374   -0.0191 H         1 <0>         0.1272
     45 H15         1.1663    3.1566    0.0075 H         1 <0>         0.1369
     46 H16         1.8945   -2.8373   -0.0316 H         1 <0>         0.1309
     47 H17        -0.4970   -3.7390   -0.0138 H         1 <0>         0.1831
     48 H18        -1.1927    3.1057   -0.4097 H         1 <0>         0.0965
     49 H19        -2.0623    1.5608   -0.5692 H         1 <0>         0.0753
     50 H20        -2.1774   -0.1756    3.7166 H         1 <0>         0.0745
     51 H21        -0.8982    1.0600    3.6460 H         1 <0>         0.0244
     52 H22        -2.5909    1.5453    3.9058 H         1 <0>         0.0388
     53 O5         -3.0214    4.3827    1.1294 O.co2     1 <0>        -0.7689
@<TRIPOS>BOND
     1    1    2 1
     2    1   32 1
     3    1   33 1
     4    1   34 1
     5    2    6 1
     6    2    3 2
     7    3    4 1
     8    3   13 1
     9    4    5 2
    10    5    6 1
    11    5    7 1
    12    7   12 ar
    13    7    8 ar
    14    8    9 ar
    15    8   35 1
    16    9   10 ar
    17    9   36 1
    18   10   11 ar
    19   10   37 1
    20   11   12 ar
    21   11   38 1
    22   12   39 1
    23   13   14 1
    24   13   40 1
    25   13   41 1
    26   14   15 1
    27   14   42 1
    28   14   43 1
    29   15   16 1
    30   16   21 ar
    31   16   17 ar
    32   17   18 ar
    33   17   44 1
    34   18   19 ar
    35   18   45 1
    36   19   20 ar
    37   19   25 1
    38   20   24 1
    39   20   21 ar
    40   21   22 1
    41   22   23 2
    42   22   46 1
    43   23   24 1
    44   23   47 1
    45   25   26 1
    46   25   48 1
    47   25   49 1
    48   26   27 1
    49   26   28 1
    50   26   30 1
    51   28   29 2
    52   28   53 1
    53   30   31 1
    54   31   50 1
    55   31   51 1
    56   31   52 1
@<TRIPOS>MOLECULE
ZINC13261360
   50    53     0     0     0
SMALL
USER_CHARGES

@<TRIPOS>ATOM
      1 C1         -0.0440    1.2703    0.0253 C.ar      1 <0>        -0.1199
      2 C2          1.1385    1.9865    0.0059 C.ar      1 <0>        -0.1204
      3 C3          2.3439    1.3159   -0.0144 C.ar      1 <0>        -0.1124
      4 C4          2.3784   -0.0721   -0.0117 C.ar      1 <0>        -0.0868
      5 C5          1.2020   -0.7866    0.0175 C.ar      1 <0>        -0.0691
      6 C6         -0.0110   -0.1084    0.0301 C.ar      1 <0>        -0.1209
      7 C7          1.1609   -2.2916    0.0528 C.3       1 <0>        -0.0966
      8 C8          2.4791   -2.8837   -0.4433 C.3       1 <0>         0.1201
      9 N1          3.5776   -2.1739    0.2326 N.pl3     1 <0>        -0.9993
     10 C9          3.7288   -0.7424   -0.0493 C.3       1 <0>         0.1548
     11 S1          4.6016   -2.9602    1.2697 S.o2      1 <0>         2.6976
     12 O1          5.1365   -1.9718    2.1394 O.2       1 <0>        -0.9489
     13 O2          3.8984   -4.0976    1.7502 O.2       1 <0>        -0.9523
     14 C10         5.9483   -3.5689    0.3104 C.ar      1 <0>        -0.6924
     15 C11         5.8774   -4.8288   -0.2577 C.ar      1 <0>        -0.0020
     16 C12         6.9303   -5.3144   -1.0123 C.ar      1 <0>        -0.1430
     17 C13         8.0589   -4.5440   -1.2038 C.ar      1 <0>        -0.0194
     18 C14         8.1367   -3.2722   -0.6340 C.ar      1 <0>        -0.1434
     19 C15         7.0685   -2.7864    0.1225 C.ar      1 <0>         0.0367
     20 C16         9.3425   -2.4414   -0.8348 C.2       1 <0>         0.5515
     21 O3          9.4075   -1.3342   -0.3374 O.2       1 <0>        -0.5335
     22 N2         10.3700   -2.9115   -1.5695 N.am      1 <0>        -0.6319
     23 C17        11.4645   -2.0960   -1.8361 C.ar      1 <0>         0.1685
     24 C18        11.9060   -1.1864   -0.8839 C.ar      1 <0>        -0.1398
     25 C19        12.9925   -0.3786   -1.1504 C.ar      1 <0>        -0.1103
     26 C20        13.6516   -0.4666   -2.3668 C.ar      1 <0>        -0.1530
     27 C21        13.2292   -1.3617   -3.3243 C.ar      1 <0>        -0.0696
     28 C22        12.1330   -2.1919   -3.0676 C.ar      1 <0>        -0.1625
     29 C23        11.6796   -3.1549   -4.0834 C.2       1 <0>         0.5266
     30 O4         12.3219   -3.3051   -5.1138 O.co2     1 <0>        -0.6781
     31 O5         10.6603   -3.8056   -3.8976 O.co2     1 <0>        -0.6915
     32 H1         -0.9911    1.7892    0.0413 H         1 <0>         0.1212
     33 H2          1.1186    3.0663    0.0062 H         1 <0>         0.1234
     34 H3          3.2678    1.8748   -0.0330 H         1 <0>         0.1266
     35 H4         -0.9358   -0.6660    0.0441 H         1 <0>         0.1214
     36 H5          0.9825   -2.6214    1.0762 H         1 <0>         0.0840
     37 H6          0.3483   -2.6431   -0.5831 H         1 <0>         0.0886
     38 H7          2.5212   -3.9454   -0.1999 H         1 <0>         0.0983
     39 H8          2.5613   -2.7486   -1.5218 H         1 <0>         0.0802
     40 H9          4.1712   -0.6119   -1.0369 H         1 <0>         0.0866
     41 H10         4.3785   -0.2916    0.7009 H         1 <0>         0.1079
     42 H11         4.9963   -5.4359   -0.1109 H         1 <0>         0.1426
     43 H12         6.8689   -6.2988   -1.4523 H         1 <0>         0.1420
     44 H13         8.8803   -4.9244   -1.7928 H         1 <0>         0.1479
     45 H14         7.1209   -1.8016    0.5629 H         1 <0>         0.1522
     46 H15        10.3462   -3.8186   -1.9122 H         1 <0>         0.4234
     47 H16        11.3980   -1.1111    0.0663 H         1 <0>         0.1334
     48 H17        13.3313    0.3272   -0.4065 H         1 <0>         0.1166
     49 H18        14.5009    0.1706   -2.5647 H         1 <0>         0.1154
     50 H19        13.7462   -1.4258   -4.2703 H         1 <0>         0.1291
@<TRIPOS>BOND
     1    1    6 ar
     2    1    2 ar
     3    1   32 1
     4    2    3 ar
     5    2   33 1
     6    3    4 ar
     7    3   34 1
     8    4   10 1
     9    4    5 ar
    10    5    6 ar
    11    5    7 1
    12    6   35 1
    13    7    8 1
    14    7   36 1
    15    7   37 1
    16    8    9 1
    17    8   38 1
    18    8   39 1
    19    9   10 1
    20    9   11 1
    21   10   40 1
    22   10   41 1
    23   11   12 2
    24   11   13 2
    25   11   14 1
    26   14   19 ar
    27   14   15 ar
    28   15   16 ar
    29   15   42 1
    30   16   17 ar
    31   16   43 1
    32   17   18 ar
    33   17   44 1
    34   18   19 ar
    35   18   20 1
    36   19   45 1
    37   20   21 2
    38   20   22 am
    39   22   23 1
    40   22   46 1
    41   23   28 ar
    42   23   24 ar
    43   24   25 ar
    44   24   47 1
    45   25   26 ar
    46   25   48 1
    47   26   27 ar
    48   26   49 1
    49   27   28 ar
    50   27   50 1
    51   28   29 1
    52   29   30 2
    53   29   31 1
@<TRIPOS>MOLECULE
ZINC43277624
   46    48     0     0     0
SMALL
USER_CHARGES

@<TRIPOS>ATOM
      1 C1         -0.1027    0.7780   -0.2659 C.3       1 <0>         0.0261
      2 O1         -0.0563   -0.6495   -0.2203 O.3       1 <0>        -0.3082
      3 C2          0.8090   -1.2665   -1.0691 C.ar      1 <0>         0.1488
      4 C3          1.5990   -0.5139   -1.9216 C.ar      1 <0>        -0.2395
      5 C4          2.4818   -1.1460   -2.7875 C.ar      1 <0>         0.2123
      6 C5          2.5723   -2.5317   -2.7982 C.ar      1 <0>        -0.1729
      7 C6          1.7841   -3.2840   -1.9482 C.ar      1 <0>        -0.0983
      8 C7          0.9058   -2.6560   -1.0777 C.ar      1 <0>         0.0885
      9 N1          0.1107   -3.4201   -0.2109 N.pl3     1 <0>        -1.0327
     10 S1          0.7108   -4.8151    0.4496 S.o2      1 <0>         2.7041
     11 O2         -0.2582   -5.2719    1.3833 O.2       1 <0>        -0.9239
     12 O3          1.1616   -5.6163   -0.6339 O.2       1 <0>        -0.9496
     13 C8          2.1407   -4.3773    1.3814 C.2       1 <0>        -0.6239
     14 C9          3.3969   -4.8177    1.0421 C.2       1 <0>        -0.1076
     15 C10         4.4552   -4.4423    1.8030 C.2       1 <0>        -0.2400
     16 S2          3.7793   -3.4800    3.0027 S.3       1 <0>         0.3309
     17 C11         2.0705   -3.5610    2.5012 C.2       1 <0>        -0.1533
     18 C12         0.8985   -2.9320    3.1127 C.2       1 <0>         0.5353
     19 O4         -0.2115   -3.1510    2.6663 O.2       1 <0>        -0.4557
     20 O5          1.0497   -2.1095    4.1712 O.3       1 <0>        -0.3438
     21 C13        -0.1428   -1.6204    4.7882 C.3       1 <0>         0.0335
     22 N2          3.2805   -0.3859   -3.6501 N.pl3     1 <0>        -0.6845
     23 C14         3.7316   -0.9373   -4.8517 C.ar      1 <0>         0.1763
     24 C15         2.9633   -1.8867   -5.5139 C.ar      1 <0>        -0.1617
     25 C16         3.4123   -2.4297   -6.7016 C.ar      1 <0>        -0.0868
     26 C17         4.6252   -2.0296   -7.2318 C.ar      1 <0>        -0.1507
     27 C18         5.3926   -1.0848   -6.5753 C.ar      1 <0>        -0.0876
     28 C19         4.9470   -0.5334   -5.3902 C.ar      1 <0>        -0.1647
     29 H1          0.8810    1.1814   -0.0256 H         1 <0>         0.0559
     30 H2         -0.3932    1.1004   -1.2658 H         1 <0>         0.0578
     31 H3         -0.8313    1.1412    0.4590 H         1 <0>         0.1019
     32 H4          1.5284    0.5637   -1.9135 H         1 <0>         0.1353
     33 H5          3.2592   -3.0221   -3.4721 H         1 <0>         0.1371
     34 H6          1.8554   -4.3616   -1.9586 H         1 <0>         0.1684
     35 H7         -0.7906   -3.1314    0.0017 H         1 <0>         0.4330
     36 H8          3.5399   -5.4544    0.1815 H         1 <0>         0.1599
     37 H9          5.4946   -4.7028    1.6685 H         1 <0>         0.2023
     38 H10         0.1188   -0.9086    5.5711 H         1 <0>         0.1084
     39 H11        -0.7625   -1.1260    4.0400 H         1 <0>         0.0688
     40 H12        -0.6944   -2.4534    5.2240 H         1 <0>         0.0674
     41 H13         3.5207    0.5236   -3.4135 H         1 <0>         0.4097
     42 H14         2.0161   -2.1999   -5.1002 H         1 <0>         0.1284
     43 H15         2.8157   -3.1681   -7.2167 H         1 <0>         0.1256
     44 H16         4.9742   -2.4562   -8.1606 H         1 <0>         0.1224
     45 H17         6.3393   -0.7745   -6.9922 H         1 <0>         0.1246
     46 H18         5.5447    0.2077   -4.8803 H         1 <0>         0.1226
@<TRIPOS>BOND
     1    1    2 1
     2    1   29 1
     3    1   30 1
     4    1   31 1
     5    2    3 1
     6    3    8 ar
     7    3    4 ar
     8    4    5 ar
     9    4   32 1
    10    5    6 ar
    11    5   22 1
    12    6    7 ar
    13    6   33 1
    14    7    8 ar
    15    7   34 1
    16    8    9 1
    17    9   10 1
    18    9   35 1
    19   10   11 2
    20   10   12 2
    21   10   13 1
    22   13   17 2
    23   13   14 1
    24   14   15 2
    25   14   36 1
    26   15   16 1
    27   15   37 1
    28   16   17 1
    29   17   18 1
    30   18   19 2
    31   18   20 1
    32   20   21 1
    33   21   38 1
    34   21   39 1
    35   21   40 1
    36   22   23 1
    37   22   41 1
    38   23   28 ar
    39   23   24 ar
    40   24   25 ar
    41   24   42 1
    42   25   26 ar
    43   25   43 1
    44   26   27 ar
    45   26   44 1
    46   27   28 ar
    47   27   45 1
    48   28   46 1
@<TRIPOS>MOLECULE
ZINC00968326
   45    47     0     0     0
SMALL
USER_CHARGES

@<TRIPOS>ATOM
      1 C1         -0.0187    1.5258    0.0104 C.3       1 <0>        -0.1485
      2 C2          0.0021   -0.0041    0.0020 C.3       1 <0>        -0.0824
      3 C3          0.7074   -0.4901   -1.2379 C.ar      1 <0>        -0.1335
      4 C4         -0.0042   -0.7219   -2.4052 C.ar      1 <0>        -0.0713
      5 C5          0.6863   -1.1686   -3.5212 C.ar      1 <0>        -0.1599
      6 C6          2.0515   -1.3665   -3.4340 C.ar      1 <0>         0.1214
      7 N1          2.6957   -1.1360   -2.3068 N.ar      1 <0>        -0.4784
      8 C7          2.0724   -0.7048   -1.2275 C.ar      1 <0>         0.1060
      9 C8          2.8124   -1.8518   -4.6409 C.3       1 <0>        -0.0657
     10 C9          3.9559   -0.8824   -4.9466 C.3       1 <0>         0.0687
     11 O1          4.6774   -1.3426   -6.0910 O.3       1 <0>        -0.3152
     12 C10         5.7327   -0.5897   -6.4989 C.ar      1 <0>         0.1399
     13 C11         6.0704    0.5652   -5.8083 C.ar      1 <0>        -0.2058
     14 C12         7.1439    1.3286   -6.2246 C.ar      1 <0>        -0.0602
     15 C13         7.8812    0.9427   -7.3288 C.ar      1 <0>        -0.1383
     16 C14         7.5463   -0.2076   -8.0191 C.ar      1 <0>        -0.0679
     17 C15         6.4775   -0.9777   -7.6031 C.ar      1 <0>        -0.1517
     18 C16         9.0514    1.7777   -7.7811 C.3       1 <0>        -0.0494
     19 C17        10.3234    1.2942   -7.0816 C.3       1 <0>        -0.0713
     20 H1         10.4751    0.2258   -7.2351 H         1 <0>         0.1617
     21 C18        11.5388    2.0958   -7.5262 C.2       1 <0>         0.5304
     22 O2         11.9246    2.1041   -8.6755 O.2       1 <0>        -0.4580
     23 N2         12.1444    2.7828   -6.5723 N.am      1 <0>        -0.6899
     24 C19        11.7359    2.7906   -5.2899 C.2       1 <0>         0.5612
     25 O3         12.2256    3.3872   -4.3506 O.2       1 <0>        -0.4174
     26 S1         10.3050    1.7178   -5.2898 S.3       1 <0>        -0.1427
     27 H2          1.0039    1.9031    0.0027 H         1 <0>         0.0568
     28 H3         -0.5459    1.8868   -0.8726 H         1 <0>         0.0553
     29 H4         -0.5289    1.8773    0.9072 H         1 <0>         0.0621
     30 H5          0.5293   -0.3651    0.8851 H         1 <0>         0.0771
     31 H6         -1.0205   -0.3814    0.0098 H         1 <0>         0.0751
     32 H7         -1.0711   -0.5588   -2.4439 H         1 <0>         0.1358
     33 H8          0.1641   -1.3598   -4.4471 H         1 <0>         0.1371
     34 H9          2.6347   -0.5220   -0.3237 H         1 <0>         0.1565
     35 H10         3.2199   -2.8425   -4.4393 H         1 <0>         0.0951
     36 H11         2.1404   -1.9028   -5.4976 H         1 <0>         0.0911
     37 H12         3.5484    0.1082   -5.1482 H         1 <0>         0.0612
     38 H13         4.6278   -0.8314   -4.0898 H         1 <0>         0.0764
     39 H14         5.4944    0.8673   -4.9462 H         1 <0>         0.1296
     40 H15         7.4072    2.2277   -5.6873 H         1 <0>         0.1300
     41 H16         8.1235   -0.5066   -8.8815 H         1 <0>         0.1325
     42 H17         6.2191   -1.8785   -8.1399 H         1 <0>         0.1331
     43 H18         9.1711    1.6812   -8.8602 H         1 <0>         0.1057
     44 H19         8.8719    2.8224   -7.5274 H         1 <0>         0.0897
     45 H20        12.9243    3.3086   -6.8092 H         1 <0>         0.4181
@<TRIPOS>BOND
     1    1    2 1
     2    1   27 1
     3    1   28 1
     4    1   29 1
     5    2    3 1
     6    2   30 1
     7    2   31 1
     8    3    8 ar
     9    3    4 ar
    10    4    5 ar
    11    4   32 1
    12    5    6 ar
    13    5   33 1
    14    6    7 ar
    15    6    9 1
    16    7    8 ar
    17    8   34 1
    18    9   10 1
    19    9   35 1
    20    9   36 1
    21   10   11 1
    22   10   37 1
    23   10   38 1
    24   11   12 1
    25   12   17 ar
    26   12   13 ar
    27   13   14 ar
    28   13   39 1
    29   14   15 ar
    30   14   40 1
    31   15   16 ar
    32   15   18 1
    33   16   17 ar
    34   16   41 1
    35   17   42 1
    36   18   19 1
    37   18   43 1
    38   18   44 1
    39   19   20 1
    40   19   26 1
    41   19   21 1
    42   21   22 2
    43   21   23 am
    44   23   24 am
    45   23   45 1
    46   24   25 2
    47   24   26 1
@<TRIPOS>MOLECULE
ZINC00968327
   45    47     0     0     0
SMALL
USER_CHARGES

@<TRIPOS>ATOM
      1 C1         -0.0187    1.5258    0.0104 C.3       1 <0>        -0.1485
      2 C2          0.0021   -0.0041    0.0020 C.3       1 <0>        -0.0825
      3 C3          0.7074   -0.4901   -1.2379 C.ar      1 <0>        -0.1336
      4 C4         -0.0042   -0.7219   -2.4052 C.ar      1 <0>        -0.0712
      5 C5          0.6863   -1.1686   -3.5212 C.ar      1 <0>        -0.1598
      6 C6          2.0515   -1.3665   -3.4340 C.ar      1 <0>         0.1216
      7 N1          2.6957   -1.1360   -2.3068 N.ar      1 <0>        -0.4787
      8 C7          2.0724   -0.7048   -1.2275 C.ar      1 <0>         0.1058
      9 C8          2.8124   -1.8518   -4.6409 C.3       1 <0>        -0.0660
     10 C9          3.9559   -0.8824   -4.9466 C.3       1 <0>         0.0690
     11 O1          4.6774   -1.3426   -6.0910 O.3       1 <0>        -0.3149
     12 C10         5.7327   -0.5897   -6.4989 C.ar      1 <0>         0.1399
     13 C11         6.0704    0.5652   -5.8083 C.ar      1 <0>        -0.2075
     14 C12         7.1439    1.3286   -6.2246 C.ar      1 <0>        -0.0666
     15 C13         7.8812    0.9427   -7.3288 C.ar      1 <0>        -0.1380
     16 C14         7.5463   -0.2076   -8.0191 C.ar      1 <0>        -0.0619
     17 C15         6.4775   -0.9777   -7.6031 C.ar      1 <0>        -0.1499
     18 C16         9.0514    1.7777   -7.7811 C.3       1 <0>        -0.0494
     19 C17        10.3234    1.2942   -7.0816 C.3       1 <0>        -0.0718
     20 H1         10.1976    1.2843   -5.9990 H         1 <0>         0.1610
     21 C18        11.5310    2.1255   -7.4915 C.2       1 <0>         0.5304
     22 O2         11.6078    3.3136   -7.2622 O.2       1 <0>        -0.4586
     23 N2         12.4905    1.4623   -8.1144 N.am      1 <0>        -0.6899
     24 C19        12.4296    0.1443   -8.3802 C.2       1 <0>         0.5610
     25 O3         13.2568   -0.5460   -8.9434 O.2       1 <0>        -0.4171
     26 S1         10.8483   -0.3549   -7.7104 S.3       1 <0>        -0.1410
     27 H2          1.0039    1.9031    0.0027 H         1 <0>         0.0567
     28 H3         -0.5459    1.8868   -0.8726 H         1 <0>         0.0554
     29 H4         -0.5289    1.8773    0.9072 H         1 <0>         0.0622
     30 H5          0.5293   -0.3651    0.8851 H         1 <0>         0.0771
     31 H6         -1.0205   -0.3814    0.0098 H         1 <0>         0.0752
     32 H7         -1.0711   -0.5588   -2.4439 H         1 <0>         0.1359
     33 H8          0.1641   -1.3598   -4.4471 H         1 <0>         0.1372
     34 H9          2.6347   -0.5220   -0.3237 H         1 <0>         0.1563
     35 H10         3.2199   -2.8425   -4.4393 H         1 <0>         0.0953
     36 H11         2.1404   -1.9028   -5.4976 H         1 <0>         0.0913
     37 H12         3.5484    0.1082   -5.1482 H         1 <0>         0.0610
     38 H13         4.6278   -0.8314   -4.0898 H         1 <0>         0.0759
     39 H14         5.4944    0.8673   -4.9462 H         1 <0>         0.1292
     40 H15         7.4072    2.2277   -5.6873 H         1 <0>         0.1275
     41 H16         8.1235   -0.5066   -8.8815 H         1 <0>         0.1348
     42 H17         6.2191   -1.8785   -8.1399 H         1 <0>         0.1336
     43 H18         9.1711    1.6812   -8.8602 H         1 <0>         0.0907
     44 H19         8.8719    2.8224   -7.5274 H         1 <0>         0.1047
     45 H20        13.2798    1.9516   -8.3948 H         1 <0>         0.4181
@<TRIPOS>BOND
     1    1    2 1
     2    1   27 1
     3    1   28 1
     4    1   29 1
     5    2    3 1
     6    2   30 1
     7    2   31 1
     8    3    8 ar
     9    3    4 ar
    10    4    5 ar
    11    4   32 1
    12    5    6 ar
    13    5   33 1
    14    6    7 ar
    15    6    9 1
    16    7    8 ar
    17    8   34 1
    18    9   10 1
    19    9   35 1
    20    9   36 1
    21   10   11 1
    22   10   37 1
    23   10   38 1
    24   11   12 1
    25   12   17 ar
    26   12   13 ar
    27   13   14 ar
    28   13   39 1
    29   14   15 ar
    30   14   40 1
    31   15   16 ar
    32   15   18 1
    33   16   17 ar
    34   16   41 1
    35   17   42 1
    36   18   19 1
    37   18   43 1
    38   18   44 1
    39   19   20 1
    40   19   26 1
    41   19   21 1
    42   21   22 2
    43   21   23 am
    44   23   24 am
    45   23   45 1
    46   24   25 2
    47   24   26 1
@<TRIPOS>MOLECULE
ZINC01024901
   37    38     0     0     0
SMALL
USER_CHARGES
4-chloro-N-[2-[[5-(trifluoromethyl)-2-pyridyl]sulfonyl]ethyl]benzamide
@<TRIPOS>ATOM
      1 C1         -3.5818   10.0442    5.5831 C.ar      1 <0>        -0.0743
      2 C2         -3.5685   11.4198    5.4883 C.ar      1 <0>        -0.1175
      3 C3         -4.1896   12.1896    6.4580 C.ar      1 <0>        -0.0095
      4 C4         -4.8330   11.5833    7.5243 C.ar      1 <0>        -0.1161
      5 C5         -4.8588   10.2084    7.6262 C.ar      1 <0>        -0.0436
      6 C6         -4.2341    9.4272    6.6522 C.ar      1 <0>        -0.1340
      7 C7         -4.2581    7.9532    6.7557 C.2       1 <0>         0.5612
      8 O1         -4.8225    7.4186    7.6902 O.2       1 <0>        -0.5226
      9 N1         -3.6543    7.2016    5.8139 N.am      1 <0>        -0.7218
     10 C8         -3.6781    5.7404    5.9165 C.3       1 <0>         0.1306
     11 C9         -2.9265    5.1335    4.7299 C.3       1 <0>        -0.6298
     12 S1         -2.9560    3.3242    4.8569 S.o2      1 <0>         2.5134
     13 O2         -4.2794    2.8419    4.6694 O.2       1 <0>        -0.8945
     14 O3         -2.1809    2.8990    5.9694 O.2       1 <0>        -0.9108
     15 C10        -2.0664    2.7567    3.4459 C.ar      1 <0>        -0.4056
     16 C11        -0.7003    2.5644    3.5314 C.ar      1 <0>        -0.0871
     17 C12        -0.0097    2.1181    2.4153 C.ar      1 <0>        -0.0343
     18 C13        -0.7223    1.8808    1.2496 C.ar      1 <0>        -0.1874
     19 C14        -2.0864    2.1010    1.2376 C.ar      1 <0>         0.1374
     20 N2         -2.7115    2.5207    2.3204 N.ar      1 <0>        -0.3861
     21 C15        -0.0169    1.3948    0.0097 C.3       1 <0>         0.5137
     22 F1          0.0021   -0.0041    0.0020 F         1 <0>        -0.1664
     23 F2          1.2956    1.8790   -0.0002 F         1 <0>        -0.1696
     24 F3         -0.6935    1.8582   -1.1237 F         1 <0>        -0.1678
     25 Cl1        -4.1619   13.9211    6.3361 Cl        1 <0>        -0.0566
     26 H1         -3.0927    9.4451    4.8292 H         1 <0>         0.1352
     27 H2         -3.0686   11.8981    4.6590 H         1 <0>         0.1422
     28 H3         -5.3159   12.1887    8.2771 H         1 <0>         0.1442
     29 H4         -5.3614    9.7368    8.4577 H         1 <0>         0.1489
     30 H5         -3.2039    7.6282    5.0682 H         1 <0>         0.4047
     31 H6         -4.7110    5.3924    5.9087 H         1 <0>         0.0929
     32 H7         -3.1983    5.4335    6.8458 H         1 <0>         0.0921
     33 H8         -1.8936    5.4815    4.7377 H         1 <0>         0.1472
     34 H9         -3.4063    5.4404    3.8006 H         1 <0>         0.1509
     35 H10        -0.1775    2.7591    4.4562 H         1 <0>         0.1720
     36 H11         1.0579    1.9593    2.4527 H         1 <0>         0.1645
     37 H12        -2.6478    1.9231    0.3323 H         1 <0>         0.1843
@<TRIPOS>BOND
     1    1    6 ar
     2    1    2 ar
     3    1   26 1
     4    2    3 ar
     5    2   27 1
     6    3    4 ar
     7    3   25 1
     8    4    5 ar
     9    4   28 1
    10    5    6 ar
    11    5   29 1
    12    6    7 1
    13    7    8 2
    14    7    9 am
    15    9   10 1
    16    9   30 1
    17   10   11 1
    18   10   31 1
    19   10   32 1
    20   11   12 1
    21   11   33 1
    22   11   34 1
    23   12   13 2
    24   12   14 2
    25   12   15 1
    26   15   20 ar
    27   15   16 ar
    28   16   17 ar
    29   16   35 1
    30   17   18 ar
    31   17   36 1
    32   18   19 ar
    33   18   21 1
    34   19   20 ar
    35   19   37 1
    36   21   22 1
    37   21   23 1
    38   21   24 1
@<TRIPOS>MOLECULE
ZINC00584092
   46    47     0     0     0
SMALL
USER_CHARGES

@<TRIPOS>ATOM
      1 C1         -5.3520    2.0187   -0.3089 C.3       1 <0>        -0.1503
      2 C2         -4.6606    0.8990   -1.0895 C.3       1 <0>         0.0762
      3 C3         -3.5931    1.5002   -2.0060 C.3       1 <0>        -0.1722
      4 O1         -4.0456   -0.0100   -0.1743 O.3       1 <0>        -0.3399
      5 C4         -3.9475   -1.2915   -0.5616 C.2       1 <0>         0.4348
      6 O2         -4.3699   -1.6302   -1.6418 O.2       1 <0>        -0.4797
      7 C5         -3.3107   -2.3078    0.3509 C.3       1 <0>         0.1268
      8 C6         -1.8655   -1.8978    0.6412 C.3       1 <0>        -0.1382
      9 C7         -4.0945   -2.3771    1.6630 C.3       1 <0>        -0.1953
     10 O3         -3.3244   -3.5896   -0.2806 O.3       1 <0>        -0.2779
     11 C8         -4.5377   -4.1038   -0.6045 C.ar      1 <0>         0.1680
     12 C9         -5.6841   -3.3358   -0.4334 C.ar      1 <0>        -0.1997
     13 C10        -6.9169   -3.8533   -0.7612 C.ar      1 <0>        -0.0227
     14 C11        -7.0152   -5.1534   -1.2669 C.ar      1 <0>        -0.1978
     15 C12        -5.8595   -5.9223   -1.4374 C.ar      1 <0>        -0.0426
     16 C13        -4.6303   -5.3950   -1.1120 C.ar      1 <0>        -0.1569
     17 C14        -8.3339   -5.7122   -1.6190 C.2       1 <0>         0.4433
     18 O4         -9.2622   -4.9681   -1.8701 O.2       1 <0>        -0.4461
     19 C15        -8.5270   -7.1760   -1.6667 C.ar      1 <0>        -0.1549
     20 C16        -7.6759   -8.0195   -0.9484 C.ar      1 <0>        -0.0692
     21 C17        -7.8616   -9.3847   -0.9966 C.ar      1 <0>        -0.1207
     22 C18        -8.8895   -9.9205   -1.7553 C.ar      1 <0>        -0.0087
     23 C19        -9.7369   -9.0894   -2.4698 C.ar      1 <0>        -0.1195
     24 C20        -9.5649   -7.7222   -2.4256 C.ar      1 <0>        -0.0504
     25 Cl1        -9.1164  -11.6407   -1.8113 Cl        1 <0>        -0.0589
     26 H1         -5.8211    2.7121   -1.0070 H         1 <0>         0.0807
     27 H2         -6.1125    1.5904    0.3440 H         1 <0>         0.0651
     28 H3         -4.6151    2.5512    0.2922 H         1 <0>         0.0698
     29 H4         -5.3976    0.3665   -1.6906 H         1 <0>         0.0847
     30 H5         -4.0623    2.1936   -2.7040 H         1 <0>         0.0770
     31 H6         -2.8562    2.0328   -1.4049 H         1 <0>         0.0682
     32 H7         -3.1006    0.7026   -2.5620 H         1 <0>         0.0609
     33 H8         -1.8493   -0.8859    1.0461 H         1 <0>         0.0954
     34 H9         -1.4312   -2.5862    1.3661 H         1 <0>         0.0879
     35 H10        -1.2866   -1.9291   -0.2818 H         1 <0>         0.0755
     36 H11        -5.0808   -2.8016    1.4750 H         1 <0>         0.0837
     37 H12        -3.5580   -3.0055    2.3739 H         1 <0>         0.0896
     38 H13        -4.2033   -1.3738    2.0747 H         1 <0>         0.0917
     39 H14        -5.6073   -2.3320   -0.0425 H         1 <0>         0.1287
     40 H15        -7.8068   -3.2562   -0.6276 H         1 <0>         0.1348
     41 H16        -5.9310   -6.9268   -1.8276 H         1 <0>         0.1435
     42 H17        -3.7369   -5.9866   -1.2471 H         1 <0>         0.1412
     43 H18        -6.8740   -7.6029   -0.3569 H         1 <0>         0.1464
     44 H19        -7.2041  -10.0379   -0.4421 H         1 <0>         0.1425
     45 H20       -10.5364   -9.5132   -3.0594 H         1 <0>         0.1421
     46 H21       -10.2286   -7.0751   -2.9798 H         1 <0>         0.1433
@<TRIPOS>BOND
     1    1    2 1
     2    1   26 1
     3    1   27 1
     4    1   28 1
     5    2    3 1
     6    2    4 1
     7    2   29 1
     8    3   30 1
     9    3   31 1
    10    3   32 1
    11    4    5 1
    12    5    6 2
    13    5    7 1
    14    7    8 1
    15    7    9 1
    16    7   10 1
    17    8   33 1
    18    8   34 1
    19    8   35 1
    20    9   36 1
    21    9   37 1
    22    9   38 1
    23   10   11 1
    24   11   16 ar
    25   11   12 ar
    26   12   13 ar
    27   12   39 1
    28   13   14 ar
    29   13   40 1
    30   14   15 ar
    31   14   17 1
    32   15   16 ar
    33   15   41 1
    34   16   42 1
    35   17   18 2
    36   17   19 1
    37   19   24 ar
    38   19   20 ar
    39   20   21 ar
    40   20   43 1
    41   21   22 ar
    42   21   44 1
    43   22   23 ar
    44   22   25 1
    45   23   24 ar
    46   23   45 1
    47   24   46 1
@<TRIPOS>MOLECULE
ZINC03991715
   57    60     0     0     0
SMALL
USER_CHARGES

@<TRIPOS>ATOM
      1 C1         -0.3909    1.5381    0.5020 C.3       1 <0>        -0.0745
      2 C2         -1.0480    2.1550    1.7098 C.2       1 <0>        -0.0240
      3 C3         -0.4459    2.4712    2.8699 C.2       1 <0>        -0.0022
      4 N1         -1.3731    2.9963    3.6860 N.2       1 <0>        -0.4515
      5 C4         -2.5275    3.0101    3.0560 C.2       1 <0>         0.2640
      6 O1         -2.3477    2.4976    1.8251 O.3       1 <0>        -0.1885
      7 C5         -3.7985    3.5078    3.6022 C.2       1 <0>        -0.1036
      8 C6         -5.0448    3.5550    3.0053 C.2       1 <0>        -0.1172
      9 C7         -6.0965    4.0710    3.7262 C.2       1 <0>        -0.1614
     10 C8         -5.8806    4.5148    4.9921 C.2       1 <0>        -0.1745
     11 S1         -4.1370    4.2016    5.2121 S.3       1 <0>         0.1518
     12 C9          1.0118    2.2717    3.1959 C.3       1 <0>        -0.0357
     13 C10         1.7997    3.5204    2.7946 C.3       1 <0>         0.0688
     14 O2          3.1820    3.3313    3.1037 O.3       1 <0>        -0.3180
     15 C11         4.0260    4.3545    2.8077 C.ar      1 <0>         0.1187
     16 C12         3.5347    5.5144    2.2264 C.ar      1 <0>        -0.2122
     17 C13         4.3939    6.5552    1.9314 C.ar      1 <0>        -0.0617
     18 C14         5.7440    6.4374    2.2053 C.ar      1 <0>        -0.0915
     19 C15         6.2370    5.2802    2.7793 C.ar      1 <0>        -0.0361
     20 C16         5.3811    4.2386    3.0811 C.ar      1 <0>        -0.1448
     21 C17         6.6799    7.5720    1.8771 C.3       1 <0>        -0.0510
     22 C18         7.2136    7.3976    0.4539 C.3       1 <0>         0.0660
     23 C19         8.2576    8.4780    0.1646 C.3       1 <0>        -0.1721
     24 C20         7.8478    6.0372    0.3184 C.2       1 <0>         0.4558
     25 O3          9.0392    5.9081    0.4721 O.co2     1 <0>        -0.6392
     26 O4          6.1357    7.5154   -0.4769 O.3       1 <0>        -0.2917
     27 C21         6.4357    7.3524   -1.7923 C.ar      1 <0>         0.1640
     28 C22         7.7159    6.9757   -2.1714 C.ar      1 <0>        -0.1975
     29 C23         8.0169    6.8054   -3.5089 C.ar      1 <0>        -0.0866
     30 C24         7.0464    7.0204   -4.4700 C.ar      1 <0>        -0.1765
     31 C25         5.7713    7.4015   -4.0950 C.ar      1 <0>        -0.0929
     32 C26         5.4638    7.5679   -2.7585 C.ar      1 <0>        -0.1692
     33 H1         -0.4426    0.4518    0.5754 H         1 <0>         0.0900
     34 H2          0.6525    1.8500    0.4570 H         1 <0>         0.0998
     35 H3         -0.9074    1.8663   -0.3999 H         1 <0>         0.0831
     36 H4         -5.1891    3.1957    1.9971 H         1 <0>         0.1413
     37 H5         -7.0833    4.1231    3.2905 H         1 <0>         0.1414
     38 H6         -6.5853    4.9433    5.6893 H         1 <0>         0.1932
     39 H7          1.1246    2.0994    4.2662 H         1 <0>         0.0949
     40 H8          1.3923    1.4102    2.6471 H         1 <0>         0.0945
     41 H9          1.6869    3.6928    1.7242 H         1 <0>         0.0601
     42 H10         1.4192    4.3820    3.3434 H         1 <0>         0.0626
     43 H11         2.4808    5.6053    2.0085 H         1 <0>         0.1158
     44 H12         4.0113    7.4601    1.4830 H         1 <0>         0.1166
     45 H13         7.2921    5.1903    2.9916 H         1 <0>         0.1205
     46 H14         5.7666    3.3350    3.5298 H         1 <0>         0.1218
     47 H15         6.1437    8.5182    1.9506 H         1 <0>         0.0724
     48 H16         7.5129    7.5709    2.5802 H         1 <0>         0.0855
     49 H17         9.0402    8.4391    0.9223 H         1 <0>         0.0735
     50 H18         8.6951    8.3065   -0.8189 H         1 <0>         0.0699
     51 H19         7.7811    9.4582    0.1844 H         1 <0>         0.0513
     52 H20         8.4755    6.8116   -1.4214 H         1 <0>         0.1529
     53 H21         9.0124    6.5085   -3.8044 H         1 <0>         0.1153
     54 H22         7.2848    6.8908   -5.5153 H         1 <0>         0.1127
     55 H23         5.0151    7.5695   -4.8476 H         1 <0>         0.1178
     56 H24         4.4677    7.8659   -2.4661 H         1 <0>         0.1200
     57 O5          7.0890    4.9690    0.0270 O.co2     1 <0>        -0.7219
@<TRIPOS>BOND
     1    1    2 1
     2    1   33 1
     3    1   34 1
     4    1   35 1
     5    2    6 1
     6    2    3 2
     7    3    4 1
     8    3   12 1
     9    4    5 2
    10    5    6 1
    11    5    7 1
    12    7   11 1
    13    7    8 2
    14    8    9 1
    15    8   36 1
    16    9   10 2
    17    9   37 1
    18   10   11 1
    19   10   38 1
    20   12   13 1
    21   12   39 1
    22   12   40 1
    23   13   14 1
    24   13   41 1
    25   13   42 1
    26   14   15 1
    27   15   20 ar
    28   15   16 ar
    29   16   17 ar
    30   16   43 1
    31   17   18 ar
    32   17   44 1
    33   18   19 ar
    34   18   21 1
    35   19   20 ar
    36   19   45 1
    37   20   46 1
    38   21   22 1
    39   21   47 1
    40   21   48 1
    41   22   23 1
    42   22   24 1
    43   22   26 1
    44   23   49 1
    45   23   50 1
    46   23   51 1
    47   24   25 2
    48   24   57 1
    49   26   27 1
    50   27   32 ar
    51   27   28 ar
    52   28   29 ar
    53   28   52 1
    54   29   30 ar
    55   29   53 1
    56   30   31 ar
    57   30   54 1
    58   31   32 ar
    59   31   55 1
    60   32   56 1
@<TRIPOS>MOLECULE
ZINC00001984
   36    37     0     0     0
SMALL
USER_CHARGES
2-[4-(4-chlorobenzoyl)phenoxy]-2-methyl-propanoic acid
@<TRIPOS>ATOM
      1 C1          1.1776    5.7094   -0.8744 C.3       1 <0>        -0.1146
      2 C2          1.6106    4.2440   -0.7952 C.3       1 <0>         0.0548
      3 C3          2.4400    4.0251    0.4717 C.3       1 <0>        -0.1744
      4 C4          2.4406    3.8993   -2.0048 C.2       1 <0>         0.4475
      5 O1          2.0782    3.0263   -2.7573 O.co2     1 <0>        -0.6128
      6 O2          0.4532    3.4068   -0.7573 O.3       1 <0>        -0.2969
      7 C5          0.6631    2.0696   -0.6608 C.ar      1 <0>         0.1975
      8 C6         -0.4158    1.2091   -0.4913 C.ar      1 <0>        -0.1779
      9 C7         -0.2075   -0.1481   -0.3934 C.ar      1 <0>        -0.0556
     10 C8          1.0915   -0.6610   -0.4646 C.ar      1 <0>        -0.2179
     11 C9          2.1737    0.2082   -0.6351 C.ar      1 <0>        -0.0343
     12 C10         1.9563    1.5640   -0.7322 C.ar      1 <0>        -0.1759
     13 C11         1.3197   -2.1144   -0.3596 C.2       1 <0>         0.4455
     14 O3          2.1902   -2.6427   -1.0241 O.2       1 <0>        -0.4523
     15 C12         0.4905   -2.9282    0.5528 C.ar      1 <0>        -0.1486
     16 C13        -0.3924   -2.3074    1.4397 C.ar      1 <0>        -0.0644
     17 C14        -1.1673   -3.0727    2.2850 C.ar      1 <0>        -0.1234
     18 C15        -1.0637   -4.4540    2.2639 C.ar      1 <0>        -0.0116
     19 C16        -0.1858   -5.0754    1.3907 C.ar      1 <0>        -0.1244
     20 C17         0.5904   -4.3215    0.5363 C.ar      1 <0>        -0.0527
     21 Cl1        -2.0385   -5.4104    3.3357 Cl        1 <0>        -0.0685
     22 H1          0.5057    5.9350   -0.0464 H         1 <0>         0.0551
     23 H2          2.0563    6.3516   -0.8147 H         1 <0>         0.0823
     24 H3          0.6624    5.8854   -1.8187 H         1 <0>         0.0583
     25 H4          2.7982    2.9960    0.4982 H         1 <0>         0.0697
     26 H5          3.2911    4.7061    0.4709 H         1 <0>         0.0795
     27 H6          1.8217    4.2174    1.3485 H         1 <0>         0.0557
     28 H7         -1.4191    1.6056   -0.4410 H         1 <0>         0.1306
     29 H8         -1.0461   -0.8158   -0.2613 H         1 <0>         0.1303
     30 H9          3.1786   -0.1837   -0.6903 H         1 <0>         0.1252
     31 H10         2.7915    2.2359   -0.8643 H         1 <0>         0.1497
     32 H11        -0.4711   -1.2304    1.4600 H         1 <0>         0.1523
     33 H12        -1.8538   -2.5941    2.9677 H         1 <0>         0.1400
     34 H13        -0.1095   -6.1526    1.3789 H         1 <0>         0.1384
     35 H14         1.2739   -4.8071   -0.1444 H         1 <0>         0.1433
     36 O4          3.5825    4.5623   -2.2463 O.co2     1 <0>        -0.7493
@<TRIPOS>BOND
     1    1    2 1
     2    1   22 1
     3    1   23 1
     4    1   24 1
     5    2    3 1
     6    2    4 1
     7    2    6 1
     8    3   25 1
     9    3   26 1
    10    3   27 1
    11    4    5 2
    12    4   36 1
    13    6    7 1
    14    7   12 ar
    15    7    8 ar
    16    8    9 ar
    17    8   28 1
    18    9   10 ar
    19    9   29 1
    20   10   11 ar
    21   10   13 1
    22   11   12 ar
    23   11   30 1
    24   12   31 1
    25   13   14 2
    26   13   15 1
    27   15   20 ar
    28   15   16 ar
    29   16   17 ar
    30   16   32 1
    31   17   18 ar
    32   17   33 1
    33   18   19 ar
    34   18   21 1
    35   19   20 ar
    36   19   34 1
    37   20   35 1
