@<TRIPOS>MOLECULE
ZINC01437546
   39    41     0     0     0
SMALL
USER_CHARGES

@<TRIPOS>ATOM
      1 C1         -0.0173    1.4248    0.0099 C.3       1 <0>         0.0220
      2 O1          0.0021   -0.0041    0.0020 O.3       1 <0>        -0.3084
      3 C2          0.6260   -0.6185    1.0418 C.ar      1 <0>         0.1495
      4 C3          1.2021    0.1396    2.0509 C.ar      1 <0>        -0.1920
      5 C4          1.8359   -0.4840    3.1071 C.ar      1 <0>        -0.0471
      6 C5          1.8967   -1.8700    3.1594 C.ar      1 <0>         0.0759
      7 C6          1.3201   -2.6282    2.1495 C.ar      1 <0>        -0.0689
      8 C7          0.6816   -2.0038    1.0965 C.ar      1 <0>        -0.1269
      9 N1          2.5411   -2.5043    4.2325 N.pl3     1 <0>        -0.3026
     10 C8          2.2005   -3.6783    4.8207 C.2       1 <0>         0.2029
     11 N2          3.0728   -3.8956    5.7815 N.2       1 <0>        -0.3312
     12 N3          3.9313   -2.9422    5.8338 N.2       1 <0>        -0.0250
     13 N4          3.6822   -2.0627    4.9250 N.2       1 <0>        -0.0706
     14 S1          0.8460   -4.7160    4.3812 S.3       1 <0>         0.1014
     15 C9          0.9594   -6.1024    5.5455 C.3       1 <0>        -0.1842
     16 C10        -0.1570   -7.0780    5.2752 C.2       1 <0>         0.4229
     17 O2         -0.9510   -6.8594    4.3847 O.2       1 <0>        -0.4296
     18 C11        -0.2835   -8.2932    6.0900 C.ar      1 <0>        -0.1612
     19 C12         0.6285   -8.5446    7.1222 C.ar      1 <0>        -0.0605
     20 C13         0.5073   -9.6844    7.8848 C.ar      1 <0>        -0.1420
     21 C14        -0.5180  -10.5873    7.6330 C.ar      1 <0>         0.1223
     22 C15        -1.4306  -10.3442    6.6066 C.ar      1 <0>         0.0696
     23 C16        -1.3201   -9.2011    5.8407 C.ar      1 <0>        -0.0649
     24 O3         -2.4324  -11.2312    6.3634 O.3       1 <0>        -0.4827
     25 O4         -0.6317  -11.7099    8.3878 O.3       1 <0>        -0.4851
     26 H1          1.0053    1.8021    0.0021 H         1 <0>         0.0605
     27 H2         -0.5445    1.7859   -0.8732 H         1 <0>         0.1065
     28 H3         -0.5275    1.7763    0.9067 H         1 <0>         0.0605
     29 H4          1.1550    1.2178    2.0099 H         1 <0>         0.1453
     30 H5          2.2846    0.1062    3.8924 H         1 <0>         0.1420
     31 H6          1.3674   -3.7064    2.1895 H         1 <0>         0.1467
     32 H7          0.2291   -2.5936    0.3131 H         1 <0>         0.1510
     33 H8          1.9188   -6.6044    5.4204 H         1 <0>         0.1399
     34 H9          0.8756   -5.7279    6.5657 H         1 <0>         0.1393
     35 H10         1.4270   -7.8448    7.3198 H         1 <0>         0.1440
     36 H11         1.2114   -9.8773    8.6808 H         1 <0>         0.1450
     37 H12        -2.0285   -9.0097    5.0483 H         1 <0>         0.1483
     38 H13        -3.2435  -11.0541    6.8593 H         1 <0>         0.3913
     39 H14        -1.1857  -11.6014    9.1730 H         1 <0>         0.3961
@<TRIPOS>BOND
     1    1    2 1
     2    1   26 1
     3    1   27 1
     4    1   28 1
     5    2    3 1
     6    3    8 ar
     7    3    4 ar
     8    4    5 ar
     9    4   29 1
    10    5    6 ar
    11    5   30 1
    12    6    7 ar
    13    6    9 1
    14    7    8 ar
    15    7   31 1
    16    8   32 1
    17    9   13 1
    18    9   10 1
    19   10   11 2
    20   10   14 1
    21   11   12 1
    22   12   13 2
    23   14   15 1
    24   15   16 1
    25   15   33 1
    26   15   34 1
    27   16   17 2
    28   16   18 1
    29   18   23 ar
    30   18   19 ar
    31   19   20 ar
    32   19   35 1
    33   20   21 ar
    34   20   36 1
    35   21   22 ar
    36   21   25 1
    37   22   23 ar
    38   22   24 1
    39   23   37 1
    40   24   38 1
    41   25   39 1
@<TRIPOS>MOLECULE
ZINC19702690
   23    25     0     0     0
SMALL
USER_CHARGES

@<TRIPOS>ATOM
      1 C1         -0.0167    1.3791    0.0096 C.ar      1 <0>        -0.1551
      2 C2          1.1729    2.0858    0.0021 C.ar      1 <0>        -0.0909
      3 C3          2.3864    1.4263   -0.0229 C.ar      1 <0>        -0.1515
      4 C4          2.4267    0.0404   -0.0361 C.ar      1 <0>         0.1484
      5 C5          1.2138   -0.6699   -0.0111 C.ar      1 <0>        -0.0591
      6 C6          0.0021   -0.0041    0.0020 C.ar      1 <0>        -0.0685
      7 C7          1.3187   -2.1475    0.0281 C.2       1 <0>         0.0560
      8 C8          2.5872   -2.7279    0.3071 C.2       1 <0>        -0.2388
      9 C9          2.3876   -4.0758    0.2761 C.2       1 <0>         0.0244
     10 N1          1.0550   -4.2587   -0.0080 N.pl3     1 <0>        -0.3918
     11 N2          0.4723   -3.1140   -0.1435 N.2       1 <0>        -0.2748
     12 H1          0.6172   -5.1200   -0.0941 H         1 <0>         0.4478
     13 C10         3.3928   -5.1214    0.5009 C.2       1 <0>         0.5495
     14 O1          3.0722   -6.3012    0.4426 O.co2     1 <0>        -0.6806
     15 O2          4.5516   -4.8136    0.7467 O.co2     1 <0>        -0.6605
     16 C11         3.7937   -1.8705    0.5612 C.3       1 <0>         0.1639
     17 O3          3.6141   -0.6095   -0.0894 O.3       1 <0>        -0.3239
     18 H2         -0.9588    1.9068    0.0259 H         1 <0>         0.1235
     19 H3          1.1524    3.1656    0.0155 H         1 <0>         0.1252
     20 H4          3.3065    1.9918   -0.0326 H         1 <0>         0.1311
     21 H5         -0.9237   -0.5602    0.0059 H         1 <0>         0.1281
     22 H6          3.9107   -1.7140    1.6336 H         1 <0>         0.0686
     23 H7          4.6814   -2.3628    0.1640 H         1 <0>         0.1290
@<TRIPOS>BOND
     1    1    6 ar
     2    1    2 ar
     3    1   18 1
     4    2    3 ar
     5    2   19 1
     6    3    4 ar
     7    3   20 1
     8    4   17 1
     9    4    5 ar
    10    5    6 ar
    11    5    7 1
    12    6   21 1
    13    7    8 1
    14    7   11 2
    15    8   16 1
    16    8    9 2
    17    9   13 1
    18    9   10 1
    19   10   12 1
    20   10   11 1
    21   13   14 2
    22   13   15 1
    23   16   17 1
    24   16   22 1
    25   16   23 1
@<TRIPOS>MOLECULE
ZINC04243782
   25    26     0     0     0
SMALL
USER_CHARGES

@<TRIPOS>ATOM
      1 C1         -0.0173    1.4248    0.0099 C.3       1 <0>         0.0354
      2 O1          0.0021   -0.0041    0.0020 O.3       1 <0>        -0.3554
      3 C2         -1.1907   -0.6324    0.0100 C.2       1 <0>         0.5387
      4 O2         -2.2189    0.0157    0.0233 O.2       1 <0>        -0.4818
      5 C3         -1.2477   -2.1017    0.0027 C.2       1 <0>        -0.0232
      6 C4         -2.3863   -2.8860    0.0037 C.2       1 <0>        -0.1199
      7 C5         -1.9223   -4.2138   -0.0061 C.2       1 <0>         0.0523
      8 N1         -0.6064   -4.1753   -0.0122 N.2       1 <0>        -0.2178
      9 N2         -0.1854   -2.9620   -0.0125 N.pl3     1 <0>        -0.3544
     10 H1          0.7474   -2.6958   -0.0203 H         1 <0>         0.4559
     11 C6         -2.7638   -5.4366   -0.0090 C.ar      1 <0>         0.0048
     12 C7         -4.1528   -5.3293   -0.0074 C.ar      1 <0>        -0.0765
     13 C8         -4.9309   -6.4688   -0.0100 C.ar      1 <0>        -0.1028
     14 C9         -4.3339   -7.7181   -0.0142 C.ar      1 <0>        -0.0201
     15 C10        -2.9547   -7.8311   -0.0158 C.ar      1 <0>        -0.1027
     16 C11        -2.1667   -6.6963   -0.0190 C.ar      1 <0>        -0.0091
     17 Cl1        -0.4366   -6.8388   -0.0282 Cl        1 <0>        -0.0281
     18 Cl2        -5.3190   -9.1476   -0.0170 Cl        1 <0>        -0.0529
     19 H2          1.0053    1.8021    0.0021 H         1 <0>         0.1083
     20 H3         -0.5445    1.7859   -0.8732 H         1 <0>         0.0663
     21 H4         -0.5275    1.7763    0.9067 H         1 <0>         0.0663
     22 H5         -3.4129   -2.5507    0.0112 H         1 <0>         0.1744
     23 H6         -4.6199   -4.3555   -0.0037 H         1 <0>         0.1478
     24 H7         -6.0078   -6.3861   -0.0084 H         1 <0>         0.1464
     25 H8         -2.4936   -8.8077   -0.0192 H         1 <0>         0.1482
@<TRIPOS>BOND
     1    1    2 1
     2    1   19 1
     3    1   20 1
     4    1   21 1
     5    2    3 1
     6    3    4 2
     7    3    5 1
     8    5    9 1
     9    5    6 2
    10    6    7 1
    11    6   22 1
    12    7    8 2
    13    7   11 1
    14    8    9 1
    15    9   10 1
    16   11   16 ar
    17   11   12 ar
    18   12   13 ar
    19   12   23 1
    20   13   14 ar
    21   13   24 1
    22   14   15 ar
    23   14   18 1
    24   15   16 ar
    25   15   25 1
    26   16   17 1
@<TRIPOS>MOLECULE
ZINC00536057
   25    26     0     0     0
SMALL
USER_CHARGES
5-(2,4-dichlorophenyl)-2H-pyrazole-3-carbohydrazide
@<TRIPOS>ATOM
      1 C1          3.2703    4.9086   -0.0047 C.ar      1 <0>        -0.1027
      2 C2          2.9263    3.5718   -0.0018 C.ar      1 <0>        -0.0764
      3 C3          1.5840    3.2003    0.0037 C.ar      1 <0>         0.0057
      4 C4          0.5937    4.1820    0.0185 C.ar      1 <0>        -0.0096
      5 C5          0.9485    5.5167    0.0218 C.ar      1 <0>        -0.1033
      6 C6          2.2842    5.8799    0.0105 C.ar      1 <0>        -0.0208
      7 Cl1         2.7242    7.5592    0.0147 Cl        1 <0>        -0.0534
      8 Cl2        -1.0816    3.7272    0.0332 Cl        1 <0>        -0.0298
      9 C7          1.2088    1.7641   -0.0000 C.2       1 <0>         0.0540
     10 C8          2.0969    0.6730   -0.0143 C.2       1 <0>        -0.1250
     11 C9          1.2934   -0.4512   -0.0127 C.2       1 <0>        -0.0345
     12 N1          0.0021   -0.0041    0.0020 N.pl3     1 <0>        -0.3756
     13 H1         -0.8085   -0.5896    0.0066 H         1 <0>         0.4524
     14 N2         -0.0153    1.2800    0.0091 N.2       1 <0>        -0.2251
     15 C10         1.7402   -1.8536   -0.0249 C.2       1 <0>         0.5940
     16 O1          2.9284   -2.1132   -0.0381 O.2       1 <0>        -0.5019
     17 N3          0.8327   -2.8500   -0.0216 N.am      1 <0>        -0.5750
     18 N4          1.2474   -4.1515   -0.0329 N.3       1 <0>        -0.5976
     19 H2          4.3110    5.1972   -0.0134 H         1 <0>         0.1462
     20 H3          3.6968    2.8151   -0.0085 H         1 <0>         0.1482
     21 H4          0.1827    6.2781    0.0336 H         1 <0>         0.1476
     22 H5          3.1763    0.7069   -0.0250 H         1 <0>         0.1717
     23 H6         -0.1149   -2.6430   -0.0111 H         1 <0>         0.3957
     24 H7          1.8661   -4.3407    0.7413 H         1 <0>         0.3524
     25 H8          0.4597   -4.7821   -0.0287 H         1 <0>         0.3628
@<TRIPOS>BOND
     1    1    6 ar
     2    1    2 ar
     3    1   19 1
     4    2    3 ar
     5    2   20 1
     6    3    4 ar
     7    3    9 1
     8    4    5 ar
     9    4    8 1
    10    5    6 ar
    11    5   21 1
    12    6    7 1
    13    9   14 2
    14    9   10 1
    15   10   11 2
    16   10   22 1
    17   11   12 1
    18   11   15 1
    19   12   13 1
    20   12   14 1
    21   15   16 2
    22   15   17 am
    23   17   18 1
    24   17   23 1
    25   18   24 1
    26   18   25 1
@<TRIPOS>MOLECULE
ZINC04992727
   21    22     0     0     0
SMALL
USER_CHARGES

@<TRIPOS>ATOM
      1 C1         -0.0166    1.3759    0.0096 C.ar      1 <0>        -0.1151
      2 C2          1.1701    2.0868    0.0021 C.ar      1 <0>        -0.1192
      3 C3          2.3814    1.4202   -0.0130 C.ar      1 <0>        -0.1145
      4 C4          2.4122    0.0389   -0.0207 C.ar      1 <0>        -0.0279
      5 C5          1.2191   -0.6819   -0.0131 C.ar      1 <0>         0.0271
      6 C6          0.0021   -0.0041    0.0020 C.ar      1 <0>        -0.0965
      7 C7          1.2452   -2.1661   -0.0218 C.2       1 <0>         0.0273
      8 C8          0.1253   -3.0159   -0.0214 C.2       1 <0>        -0.1922
      9 C9          0.6416   -4.3001   -0.0321 C.2       1 <0>        -0.0152
     10 N1          2.0035   -4.1689   -0.0382 N.pl3     1 <0>        -0.3698
     11 H1          2.6345   -4.9055   -0.0461 H         1 <0>         0.4449
     12 N2          2.3214   -2.9246   -0.0370 N.2       1 <0>        -0.2721
     13 C10        -0.1208   -5.5543   -0.0356 C.2       1 <0>         0.5493
     14 O1          0.4670   -6.6278   -0.0454 O.co2     1 <0>        -0.6867
     15 O2         -1.3444   -5.5266   -0.0288 O.co2     1 <0>        -0.6670
     16 Cl1         3.9335   -0.7972   -0.0402 Cl        1 <0>        -0.0477
     17 H2         -0.9598    1.9019    0.0259 H         1 <0>         0.1287
     18 H3          1.1504    3.1667    0.0077 H         1 <0>         0.1275
     19 H4          3.3049    1.9801   -0.0192 H         1 <0>         0.1300
     20 H5         -0.9253   -0.5576    0.0082 H         1 <0>         0.1367
     21 H6         -0.9156   -2.7282   -0.0140 H         1 <0>         0.1524
@<TRIPOS>BOND
     1    1    6 ar
     2    1    2 ar
     3    1   17 1
     4    2    3 ar
     5    2   18 1
     6    3    4 ar
     7    3   19 1
     8    4    5 ar
     9    4   16 1
    10    5    6 ar
    11    5    7 1
    12    6   20 1
    13    7   12 2
    14    7    8 1
    15    8    9 2
    16    8   21 1
    17    9   10 1
    18    9   13 1
    19   10   11 1
    20   10   12 1
    21   13   14 2
    22   13   15 1
@<TRIPOS>MOLECULE
ZINC08132941
   33    34     0     0     0
SMALL
USER_CHARGES

@<TRIPOS>ATOM
      1 C1         -0.3441    0.9007    0.1400 C.3       1 <0>        -0.1565
      2 C2         -0.1544   -0.6084   -0.0256 C.3       1 <0>         0.0511
      3 O1          0.4841   -0.8738   -1.2762 O.3       1 <0>        -0.3077
      4 C3          0.6461   -2.1784   -1.6217 C.ar      1 <0>         0.2351
      5 C4          0.1070   -3.1796   -0.8267 C.ar      1 <0>        -0.2148
      6 C5          0.2727   -4.5047   -1.1794 C.ar      1 <0>        -0.0111
      7 C6          0.9764   -4.8340   -2.3246 C.ar      1 <0>        -0.0928
      8 C7          1.5151   -3.8371   -3.1183 C.ar      1 <0>         0.0271
      9 C8          1.3457   -2.5102   -2.7724 C.ar      1 <0>        -0.7020
     10 S1          2.0248   -1.2407   -3.7882 S.o2      1 <0>         2.6994
     11 O2          2.7217   -1.8924   -4.8412 O.2       1 <0>        -0.9448
     12 O3          0.9785   -0.3098   -4.0287 O.2       1 <0>        -0.9314
     13 N1          3.1649   -0.4486   -2.8853 N.pl3     1 <0>        -1.0457
     14 C9          4.3017   -1.1292   -2.4425 C.ar      1 <0>         0.0893
     15 C10         4.7234   -1.0151   -1.1196 C.ar      1 <0>        -0.0847
     16 C11         5.8563   -1.7089   -0.7281 C.ar      1 <0>        -0.1550
     17 C12         6.5265   -2.4859   -1.6550 C.ar      1 <0>         0.0910
     18 N2          6.1016   -2.5731   -2.9002 N.ar      1 <0>        -0.4587
     19 C13         5.0251   -1.9341   -3.3131 C.ar      1 <0>         0.0778
     20 Cl1         1.1839   -6.5002   -2.7656 Cl        1 <0>        -0.0521
     21 H1          0.6306    1.3844    0.2051 H         1 <0>         0.0687
     22 H2         -0.8887    1.2948   -0.7180 H         1 <0>         0.0743
     23 H3         -0.9092    1.0981    1.0509 H         1 <0>         0.0844
     24 H4          0.4655   -0.9880    0.7866 H         1 <0>         0.0713
     25 H5         -1.1262   -1.1015   -0.0019 H         1 <0>         0.0719
     26 H6         -0.4416   -2.9230    0.0675 H         1 <0>         0.1490
     27 H7         -0.1468   -5.2843   -0.5609 H         1 <0>         0.1475
     28 H8          2.0642   -4.0961   -4.0115 H         1 <0>         0.1620
     29 H9          3.0433    0.4880   -2.6640 H         1 <0>         0.4302
     30 H10         4.1805   -0.4005   -0.4168 H         1 <0>         0.1398
     31 H11         6.2123   -1.6437    0.2894 H         1 <0>         0.1413
     32 H12         7.4106   -3.0287   -1.3550 H         1 <0>         0.1616
     33 H13         4.7051   -2.0337   -4.3398 H         1 <0>         0.1846
@<TRIPOS>BOND
     1    1    2 1
     2    1   21 1
     3    1   22 1
     4    1   23 1
     5    2    3 1
     6    2   24 1
     7    2   25 1
     8    3    4 1
     9    4    9 ar
    10    4    5 ar
    11    5    6 ar
    12    5   26 1
    13    6    7 ar
    14    6   27 1
    15    7    8 ar
    16    7   20 1
    17    8    9 ar
    18    8   28 1
    19    9   10 1
    20   10   11 2
    21   10   12 2
    22   10   13 1
    23   13   14 1
    24   13   29 1
    25   14   19 ar
    26   14   15 ar
    27   15   16 ar
    28   15   30 1
    29   16   17 ar
    30   16   31 1
    31   17   18 ar
    32   17   32 1
    33   18   19 ar
    34   19   33 1
@<TRIPOS>MOLECULE
ZINC06706909
   34    35     0     0     0
SMALL
USER_CHARGES

@<TRIPOS>ATOM
      1 C1         -0.0173    1.4248    0.0099 C.3       1 <0>         0.0178
      2 O1          0.0021   -0.0041    0.0020 O.3       1 <0>        -0.2996
      3 C2         -1.2011   -0.6379    0.0101 C.ar      1 <0>         0.1023
      4 C3         -2.3744    0.1015    0.0195 C.ar      1 <0>        -0.0689
      5 C4         -3.5966   -0.5422    0.0283 C.ar      1 <0>        -0.6627
      6 C5         -3.6509   -1.9283    0.0276 C.ar      1 <0>         0.1985
      7 C6         -2.4781   -2.6683    0.0181 C.ar      1 <0>        -0.1596
      8 C7         -1.2550   -2.0244    0.0032 C.ar      1 <0>        -0.0328
      9 Br1         0.3444   -3.0330   -0.0182 Br        1 <0>        -0.0101
     10 O2         -4.8542   -2.5615    0.0366 O.3       1 <0>        -0.3000
     11 C8         -4.8354   -3.9904    0.0353 C.3       1 <0>         0.0139
     12 S1         -5.0870    0.3976    0.0409 S.o2      1 <0>         2.6984
     13 O3         -5.9004   -0.1447    1.0721 O.2       1 <0>        -0.9287
     14 O4         -4.7045    1.7659    0.0124 O.2       1 <0>        -0.9473
     15 N1         -5.8688    0.0949   -1.3872 N.pl3     1 <0>        -1.0479
     16 C9         -6.3471   -1.1884   -1.6634 C.ar      1 <0>         0.0942
     17 C10        -6.1380   -1.7668   -2.9134 C.ar      1 <0>        -0.0858
     18 C11        -6.6313   -3.0411   -3.1392 C.ar      1 <0>        -0.1606
     19 C12        -7.3094   -3.6925   -2.1254 C.ar      1 <0>         0.0867
     20 N2         -7.4907   -3.1173   -0.9529 N.ar      1 <0>        -0.4654
     21 C13        -7.0330   -1.9086   -0.6939 C.ar      1 <0>         0.1121
     22 H1          1.0053    1.8021    0.0021 H         1 <0>         0.1102
     23 H2         -0.5445    1.7859   -0.8732 H         1 <0>         0.0615
     24 H3         -0.5275    1.7763    0.9067 H         1 <0>         0.0623
     25 H4         -2.3325    1.1806    0.0204 H         1 <0>         0.1637
     26 H5         -2.5204   -3.7474    0.0179 H         1 <0>         0.1553
     27 H6         -5.8582   -4.3672    0.0431 H         1 <0>         0.1200
     28 H7         -4.3240   -4.3462   -0.8591 H         1 <0>         0.0604
     29 H8         -4.3098   -4.3477    0.9209 H         1 <0>         0.0653
     30 H9         -5.9947    0.8086   -2.0320 H         1 <0>         0.4290
     31 H10        -5.6049   -1.2346   -3.6872 H         1 <0>         0.1371
     32 H11        -6.4881   -3.5205   -4.0964 H         1 <0>         0.1380
     33 H12        -7.6963   -4.6862   -2.2965 H         1 <0>         0.1585
     34 H13        -7.1971   -1.4721    0.2802 H         1 <0>         0.1840
@<TRIPOS>BOND
     1    1    2 1
     2    1   22 1
     3    1   23 1
     4    1   24 1
     5    2    3 1
     6    3    8 ar
     7    3    4 ar
     8    4    5 ar
     9    4   25 1
    10    5    6 ar
    11    5   12 1
    12    6    7 ar
    13    6   10 1
    14    7    8 ar
    15    7   26 1
    16    8    9 1
    17   10   11 1
    18   11   27 1
    19   11   28 1
    20   11   29 1
    21   12   13 2
    22   12   14 2
    23   12   15 1
    24   15   16 1
    25   15   30 1
    26   16   21 ar
    27   16   17 ar
    28   17   18 ar
    29   17   31 1
    30   18   19 ar
    31   18   32 1
    32   19   20 ar
    33   19   33 1
    34   20   21 ar
    35   21   34 1
@<TRIPOS>MOLECULE
ZINC06706909
   33    34     0     0     0
SMALL
USER_CHARGES

@<TRIPOS>ATOM
      1 C1         -0.0173    1.4248    0.0099 C.3       1 <0>         0.0200
      2 O1          0.0021   -0.0041    0.0020 O.3       1 <0>        -0.3057
      3 C2          0.6263   -0.6188    1.0422 C.ar      1 <0>         0.0915
      4 C3          1.2022    0.1388    2.0510 C.ar      1 <0>        -0.0728
      5 C4          1.8366   -0.4854    3.1074 C.ar      1 <0>        -0.6006
      6 C5          1.8980   -1.8703    3.1596 C.ar      1 <0>         0.2016
      7 C6          1.3223   -2.6284    2.1512 C.ar      1 <0>        -0.1720
      8 C7          0.6820   -2.0042    1.0972 C.ar      1 <0>        -0.0467
      9 Br1        -0.1104   -3.0377   -0.2738 Br        1 <0>        -0.0344
     10 O2          2.5230   -2.4844    4.1994 O.3       1 <0>        -0.2823
     11 C8          2.5484   -3.9131    4.1888 C.3       1 <0>         0.0239
     12 S1          2.5687    0.4776    4.3885 S.o2      1 <0>         2.6081
     13 O3          3.8817   -0.0313    4.5793 O.2       1 <0>        -1.0103
     14 O4          2.3186    1.8389    4.0668 O.2       1 <0>        -1.0289
     15 N1          1.7306    0.1586    5.7807 N.2       1 <0>        -1.0730
     16 C9          2.0928    0.7883    6.9740 C.ar      1 <0>         0.2369
     17 C10         1.3984    0.5232    8.1522 C.ar      1 <0>        -0.1504
     18 C11         1.7949    1.1722    9.3097 C.ar      1 <0>        -0.1293
     19 C12         2.8580    2.0548    9.2588 C.ar      1 <0>        -0.0227
     20 N2          3.4949    2.2842    8.1273 N.ar      1 <0>        -0.4474
     21 C13         3.1541    1.6838    7.0044 C.ar      1 <0>        -0.0491
     22 H1          1.0053    1.8021    0.0021 H         1 <0>         0.0590
     23 H2         -0.5445    1.7859   -0.8732 H         1 <0>         0.1032
     24 H3         -0.5275    1.7763    0.9067 H         1 <0>         0.0611
     25 H4          1.1550    1.2170    2.0105 H         1 <0>         0.1589
     26 H5          1.3704   -3.7066    2.1917 H         1 <0>         0.1488
     27 H6          3.0757   -4.2737    5.0720 H         1 <0>         0.1061
     28 H7          1.5274   -4.2946    4.1942 H         1 <0>         0.0576
     29 H8          3.0614   -4.2607    3.2921 H         1 <0>         0.0554
     30 H9          0.5711   -0.1710    8.1628 H         1 <0>         0.1212
     31 H10         1.2793    0.9913   10.2413 H         1 <0>         0.1151
     32 H11         3.1710    2.5638   10.1585 H         1 <0>         0.1332
     33 H12         3.7026    1.8937    6.0980 H         1 <0>         0.1239
@<TRIPOS>BOND
     1    1    2 1
     2    1   22 1
     3    1   23 1
     4    1   24 1
     5    2    3 1
     6    3    8 ar
     7    3    4 ar
     8    4    5 ar
     9    4   25 1
    10    5    6 ar
    11    5   12 1
    12    6    7 ar
    13    6   10 1
    14    7    8 ar
    15    7   26 1
    16    8    9 1
    17   10   11 1
    18   11   27 1
    19   11   28 1
    20   11   29 1
    21   12   13 2
    22   12   14 2
    23   12   15 1
    24   15   16 1
    25   16   21 ar
    26   16   17 ar
    27   17   18 ar
    28   17   30 1
    29   18   19 ar
    30   18   31 1
    31   19   20 ar
    32   19   32 1
    33   20   21 ar
    34   21   33 1
@<TRIPOS>MOLECULE
ZINC00528358
   36    37     0     0     0
SMALL
USER_CHARGES

@<TRIPOS>ATOM
      1 C1         -0.3416    0.8972    0.1432 C.3       1 <0>        -0.1560
      2 C2         -0.1522   -0.6119   -0.0240 C.3       1 <0>         0.0532
      3 O1          0.4856   -0.8762   -1.2751 O.3       1 <0>        -0.3122
      4 C3          0.6474   -2.1802   -1.6218 C.ar      1 <0>         0.2236
      5 C4          0.1089   -3.1824   -0.8276 C.ar      1 <0>        -0.2234
      6 C5          0.2743   -4.5070   -1.1824 C.ar      1 <0>        -0.0219
      7 C6          0.9761   -4.8347   -2.3280 C.ar      1 <0>        -0.1393
      8 C7          1.5141   -3.8381   -3.1207 C.ar      1 <0>         0.0146
      9 C8          1.3465   -2.5114   -2.7733 C.ar      1 <0>        -0.7051
     10 S1          2.0262   -1.2414   -3.7881 S.o2      1 <0>         2.6977
     11 O2          2.7224   -1.8926   -4.8418 O.2       1 <0>        -0.9497
     12 O3          0.9804   -0.3096   -4.0276 O.2       1 <0>        -0.9360
     13 N1          3.1669   -0.4508   -2.8847 N.pl3     1 <0>        -1.0474
     14 C9          4.3030   -1.1327   -2.4420 C.ar      1 <0>         0.0928
     15 C10         4.7247   -1.0194   -1.1191 C.ar      1 <0>        -0.0855
     16 C11         5.8568   -1.7147   -0.7277 C.ar      1 <0>        -0.1549
     17 C12         6.5262   -2.4921   -1.6547 C.ar      1 <0>         0.0892
     18 N2          6.1013   -2.5785   -2.8999 N.ar      1 <0>        -0.4595
     19 C13         5.0255   -1.9382   -3.3128 C.ar      1 <0>         0.0771
     20 C14         1.1551   -6.2808   -2.7127 C.3       1 <0>        -0.1136
     21 H1          0.6332    1.3806    0.2082 H         1 <0>         0.0678
     22 H2         -0.8866    1.2922   -0.7142 H         1 <0>         0.0734
     23 H3         -0.9062    1.0937    1.0546 H         1 <0>         0.0829
     24 H4          0.4680   -0.9923    0.7876 H         1 <0>         0.0685
     25 H5         -1.1241   -1.1048   -0.0003 H         1 <0>         0.0694
     26 H6         -0.4390   -2.9270    0.0674 H         1 <0>         0.1389
     27 H7         -0.1444   -5.2875   -0.5643 H         1 <0>         0.1354
     28 H8          2.0621   -4.0966   -4.0148 H         1 <0>         0.1510
     29 H9          3.0463    0.4858   -2.6630 H         1 <0>         0.4292
     30 H10         4.1825   -0.4044   -0.4162 H         1 <0>         0.1393
     31 H11         6.2129   -1.6500    0.2899 H         1 <0>         0.1408
     32 H12         7.4098   -3.0360   -1.3548 H         1 <0>         0.1610
     33 H13         4.7055   -2.0372   -4.3395 H         1 <0>         0.1844
     34 H14         0.3273   -6.5925   -3.3496 H         1 <0>         0.0737
     35 H15         2.0941   -6.3993   -3.2534 H         1 <0>         0.0715
     36 H16         1.1735   -6.8964   -1.8134 H         1 <0>         0.0690
@<TRIPOS>BOND
     1    1    2 1
     2    1   21 1
     3    1   22 1
     4    1   23 1
     5    2    3 1
     6    2   24 1
     7    2   25 1
     8    3    4 1
     9    4    9 ar
    10    4    5 ar
    11    5    6 ar
    12    5   26 1
    13    6    7 ar
    14    6   27 1
    15    7    8 ar
    16    7   20 1
    17    8    9 ar
    18    8   28 1
    19    9   10 1
    20   10   11 2
    21   10   12 2
    22   10   13 1
    23   13   14 1
    24   13   29 1
    25   14   19 ar
    26   14   15 ar
    27   15   16 ar
    28   15   30 1
    29   16   17 ar
    30   16   31 1
    31   17   18 ar
    32   17   32 1
    33   18   19 ar
    34   19   33 1
    35   20   34 1
    36   20   35 1
    37   20   36 1
@<TRIPOS>MOLECULE
ZINC00528358
   35    36     0     0     0
SMALL
USER_CHARGES

@<TRIPOS>ATOM
      1 C1         -0.0187    1.5258    0.0104 C.3       1 <0>        -0.1526
      2 C2          0.0021   -0.0041    0.0020 C.3       1 <0>         0.0545
      3 O1         -1.3386   -0.4987    0.0122 O.3       1 <0>        -0.2869
      4 C3         -1.4983   -1.8483    0.0064 C.ar      1 <0>         0.2256
      5 C4         -0.3874   -2.6795   -0.0028 C.ar      1 <0>        -0.2336
      6 C5         -0.5524   -4.0508   -0.0082 C.ar      1 <0>        -0.0423
      7 C6         -1.8235   -4.5955   -0.0042 C.ar      1 <0>        -0.1563
      8 C7         -2.9320   -3.7694    0.0045 C.ar      1 <0>         0.0067
      9 C8         -2.7722   -2.3971    0.0157 C.ar      1 <0>        -0.6487
     10 S1         -4.1855   -1.3449    0.0342 S.o2      1 <0>         2.6116
     11 O2         -3.9859   -0.3787   -0.9884 O.2       1 <0>        -1.0171
     12 O3         -5.3240   -2.1946    0.0677 O.2       1 <0>        -1.0332
     13 N1         -4.1655   -0.5235    1.4720 N.2       1 <0>        -1.0757
     14 C9         -5.1774    0.3935    1.7667 C.ar      1 <0>         0.2386
     15 C10        -5.1676    1.0944    2.9706 C.ar      1 <0>        -0.1528
     16 C11        -6.1925    1.9926    3.2173 C.ar      1 <0>        -0.1292
     17 C12        -7.1840    2.1633    2.2687 C.ar      1 <0>        -0.0257
     18 N2         -7.1647    1.4844    1.1385 N.ar      1 <0>        -0.4473
     19 C13        -6.2051    0.6242    0.8613 C.ar      1 <0>        -0.0501
     20 C14        -2.0007   -6.0920   -0.0101 C.3       1 <0>        -0.1045
     21 H1          1.0039    1.9031    0.0027 H         1 <0>         0.0739
     22 H2         -0.5459    1.8868   -0.8726 H         1 <0>         0.0693
     23 H3         -0.5289    1.8773    0.9072 H         1 <0>         0.0715
     24 H4          0.5123   -0.3556   -0.8948 H         1 <0>         0.0592
     25 H5          0.5293   -0.3651    0.8851 H         1 <0>         0.0615
     26 H6          0.6055   -2.2546   -0.0062 H         1 <0>         0.1306
     27 H7          0.3119   -4.6983   -0.0157 H         1 <0>         0.1252
     28 H8         -3.9237   -4.1972    0.0072 H         1 <0>         0.1434
     29 H9         -4.3804    0.9408    3.6939 H         1 <0>         0.1200
     30 H10        -6.2173    2.5531    4.1401 H         1 <0>         0.1140
     31 H11        -7.9856    2.8623    2.4563 H         1 <0>         0.1323
     32 H12        -6.2207    0.0900   -0.0772 H         1 <0>         0.1237
     33 H13        -2.0383   -6.4574    1.0162 H         1 <0>         0.0666
     34 H14        -2.9298   -6.3459   -0.5204 H         1 <0>         0.0658
     35 H15        -1.1622   -6.5551   -0.5302 H         1 <0>         0.0619
@<TRIPOS>BOND
     1    1    2 1
     2    1   21 1
     3    1   22 1
     4    1   23 1
     5    2    3 1
     6    2   24 1
     7    2   25 1
     8    3    4 1
     9    4    9 ar
    10    4    5 ar
    11    5    6 ar
    12    5   26 1
    13    6    7 ar
    14    6   27 1
    15    7    8 ar
    16    7   20 1
    17    8    9 ar
    18    8   28 1
    19    9   10 1
    20   10   11 2
    21   10   12 2
    22   10   13 1
    23   13   14 1
    24   14   19 ar
    25   14   15 ar
    26   15   16 ar
    27   15   29 1
    28   16   17 ar
    29   16   30 1
    30   17   18 ar
    31   17   31 1
    32   18   19 ar
    33   19   32 1
    34   20   33 1
    35   20   34 1
    36   20   35 1
@<TRIPOS>MOLECULE
ZINC02479470
   39    41     0     0     0
SMALL
USER_CHARGES

@<TRIPOS>ATOM
      1 C1         -0.0173    1.4248    0.0099 C.3       1 <0>         0.0280
      2 O1          0.0021   -0.0041    0.0020 O.3       1 <0>        -0.3161
      3 C2         -1.2010   -0.6378    0.0101 C.ar      1 <0>         0.0614
      4 C3         -2.3745    0.1018    0.0196 C.ar      1 <0>        -0.1271
      5 C4         -3.5964   -0.5419    0.0282 C.ar      1 <0>        -0.1978
      6 C5         -3.6502   -1.9280    0.0270 C.ar      1 <0>         0.1957
      7 C6         -2.4770   -2.6674    0.0171 C.ar      1 <0>        -0.6148
      8 C7         -1.2548   -2.0235    0.0032 C.ar      1 <0>        -0.0200
      9 S1         -2.5453   -4.4281    0.0156 S.o2      1 <0>         2.6095
     10 O2         -3.4641   -4.7980   -1.0033 O.2       1 <0>        -1.0128
     11 O3         -1.2005   -4.8867    0.0318 O.2       1 <0>        -1.0275
     12 N1         -3.2213   -4.8931    1.4540 N.2       1 <0>        -1.0665
     13 C8         -3.4026   -6.2495    1.7344 C.ar      1 <0>         0.2361
     14 C9         -3.9716   -6.6417    2.9313 C.ar      1 <0>        -0.1771
     15 C10        -4.1327   -8.0189    3.1662 C.ar      1 <0>        -0.0391
     16 C11        -4.7034   -8.4937    4.3589 C.ar      1 <0>        -0.1209
     17 C12        -4.8436   -9.8340    4.5508 C.ar      1 <0>        -0.1159
     18 C13        -4.4277  -10.7425    3.5792 C.ar      1 <0>        -0.1596
     19 C14        -3.8709  -10.3177    2.4126 C.ar      1 <0>        -0.0620
     20 C15        -3.7094   -8.9409    2.1763 C.ar      1 <0>         0.0409
     21 N2         -3.1663   -8.4986    1.0381 N.ar      1 <0>        -0.4479
     22 C16        -3.0143   -7.2191    0.8021 C.ar      1 <0>         0.0366
     23 O4         -4.8533   -2.5618    0.0360 O.3       1 <0>        -0.2878
     24 C17        -6.0206   -1.7377    0.0464 C.3       1 <0>         0.0275
     25 H1          1.0053    1.8021    0.0021 H         1 <0>         0.0981
     26 H2         -0.5445    1.7859   -0.8732 H         1 <0>         0.0515
     27 H3         -0.5275    1.7763    0.9067 H         1 <0>         0.0524
     28 H4         -2.3327    1.1810    0.0205 H         1 <0>         0.1325
     29 H5         -4.5101    0.0339    0.0363 H         1 <0>         0.1354
     30 H6         -0.3412   -2.5994   -0.0087 H         1 <0>         0.1539
     31 H7         -4.2829   -5.9124    3.6644 H         1 <0>         0.1271
     32 H8         -5.0288   -7.7992    5.1193 H         1 <0>         0.1177
     33 H9         -5.2824  -10.1981    5.4680 H         1 <0>         0.1116
     34 H10        -4.5489  -11.8011    3.7553 H         1 <0>         0.1131
     35 H11        -3.5539  -11.0356    1.6706 H         1 <0>         0.1201
     36 H12        -2.5746   -6.9046   -0.1328 H         1 <0>         0.1326
     37 H13        -6.9101   -2.3676    0.0529 H         1 <0>         0.1032
     38 H14        -6.0139   -1.1094    0.9371 H         1 <0>         0.0551
     39 H15        -6.0283   -1.1073   -0.8428 H         1 <0>         0.0528
@<TRIPOS>BOND
     1    1    2 1
     2    1   25 1
     3    1   26 1
     4    1   27 1
     5    2    3 1
     6    3    8 ar
     7    3    4 ar
     8    4    5 ar
     9    4   28 1
    10    5    6 ar
    11    5   29 1
    12    6    7 ar
    13    6   23 1
    14    7    8 ar
    15    7    9 1
    16    8   30 1
    17    9   10 2
    18    9   11 2
    19    9   12 1
    20   12   13 1
    21   13   22 ar
    22   13   14 ar
    23   14   15 ar
    24   14   31 1
    25   15   20 ar
    26   15   16 ar
    27   16   17 ar
    28   16   32 1
    29   17   18 ar
    30   17   33 1
    31   18   19 ar
    32   18   34 1
    33   19   20 ar
    34   19   35 1
    35   20   21 ar
    36   21   22 ar
    37   22   36 1
    38   23   24 1
    39   24   37 1
    40   24   38 1
    41   24   39 1
@<TRIPOS>MOLECULE
ZINC02479470
   40    42     0     0     0
SMALL
USER_CHARGES

@<TRIPOS>ATOM
      1 C1         -0.0173    1.4248    0.0099 C.3       1 <0>         0.0245
      2 O1          0.0021   -0.0041    0.0020 O.3       1 <0>        -0.3123
      3 C2          0.6262   -0.6187    1.0421 C.ar      1 <0>         0.0750
      4 C3          1.2022    0.1391    2.0511 C.ar      1 <0>        -0.1087
      5 C4          1.8365   -0.4851    3.1073 C.ar      1 <0>        -0.1835
      6 C5          1.8971   -1.8700    3.1593 C.ar      1 <0>         0.1917
      7 C6          1.3209   -2.6277    2.1508 C.ar      1 <0>        -0.6732
      8 C7          0.6819   -2.0033    1.0970 C.ar      1 <0>        -0.0162
      9 S1          1.3979   -4.3868    2.2169 S.o2      1 <0>         2.6996
     10 O2          0.9841   -4.7626    3.5233 O.2       1 <0>        -0.9321
     11 O3          0.7513   -4.8658    1.0457 O.2       1 <0>        -0.9454
     12 N1          2.9928   -4.8123    2.0847 N.pl3     1 <0>        -1.0489
     13 C8          3.8969   -4.4528    3.0869 C.ar      1 <0>         0.1007
     14 C9          5.1281   -3.9205    2.7539 C.ar      1 <0>        -0.0754
     15 C10         6.0029   -3.5745    3.7992 C.ar      1 <0>        -0.0890
     16 C11         7.2706   -3.0278    3.5389 C.ar      1 <0>        -0.0983
     17 C12         8.0901   -2.7048    4.5767 C.ar      1 <0>        -0.1144
     18 C13         7.6881   -2.9097    5.8953 C.ar      1 <0>        -0.1020
     19 C14         6.4674   -3.4370    6.1838 C.ar      1 <0>        -0.0933
     20 C15         5.5916   -3.7833    5.1395 C.ar      1 <0>         0.1184
     21 N2          4.3870   -4.3019    5.3969 N.ar      1 <0>        -0.4578
     22 C16         3.5588   -4.6243    4.4347 C.ar      1 <0>         0.1470
     23 O4          2.5220   -2.4847    4.1989 O.3       1 <0>        -0.3057
     24 C17         3.0937   -1.6424    5.2018 C.3       1 <0>         0.0191
     25 H1          1.0053    1.8021    0.0021 H         1 <0>         0.0560
     26 H2         -0.5445    1.7859   -0.8732 H         1 <0>         0.1054
     27 H3         -0.5275    1.7763    0.9067 H         1 <0>         0.0566
     28 H4          1.1550    1.2173    2.0106 H         1 <0>         0.1409
     29 H5          2.2856    0.1049    3.8925 H         1 <0>         0.1417
     30 H6          0.2295   -2.5934    0.3137 H         1 <0>         0.1596
     31 H7          5.4101   -3.7748    1.7215 H         1 <0>         0.1424
     32 H8          7.5933   -2.8651    2.5211 H         1 <0>         0.1291
     33 H9          9.0644   -2.2846    4.3757 H         1 <0>         0.1276
     34 H10         8.3567   -2.6460    6.7014 H         1 <0>         0.1300
     35 H11         6.1722   -3.5894    7.2114 H         1 <0>         0.1368
     36 H12         2.5931   -5.0367    4.6871 H         1 <0>         0.1886
     37 H13         3.5596   -2.2582    5.9711 H         1 <0>         0.1161
     38 H14         3.8458   -0.9966    4.7485 H         1 <0>         0.0570
     39 H15         2.3118   -1.0299    5.6508 H         1 <0>         0.0633
     40 H16         3.2991   -5.3113    1.3114 H         1 <0>         0.4295
@<TRIPOS>BOND
     1    1    2 1
     2    1   25 1
     3    1   26 1
     4    1   27 1
     5    2    3 1
     6    3    8 ar
     7    3    4 ar
     8    4    5 ar
     9    4   28 1
    10    5    6 ar
    11    5   29 1
    12    6    7 ar
    13    6   23 1
    14    7    8 ar
    15    7    9 1
    16    8   30 1
    17    9   10 2
    18    9   11 2
    19    9   12 1
    20   12   13 1
    21   12   40 1
    22   13   22 ar
    23   13   14 ar
    24   14   15 ar
    25   14   31 1
    26   15   20 ar
    27   15   16 ar
    28   16   17 ar
    29   16   32 1
    30   17   18 ar
    31   17   33 1
    32   18   19 ar
    33   18   34 1
    34   19   20 ar
    35   19   35 1
    36   20   21 ar
    37   21   22 ar
    38   22   36 1
    39   23   24 1
    40   24   37 1
    41   24   38 1
    42   24   39 1
@<TRIPOS>MOLECULE
ZINC02479470
   40    42     0     0     0
SMALL
USER_CHARGES

@<TRIPOS>ATOM
      1 C1         -0.0173    1.4248    0.0099 C.3       1 <0>         0.0257
      2 O1          0.0021   -0.0041    0.0020 O.3       1 <0>        -0.3145
      3 C2          0.6062   -0.6075   -1.0563 C.ar      1 <0>         0.0691
      4 C3          1.1729    0.1613   -2.0623 C.ar      1 <0>        -0.1176
      5 C4          1.7860   -0.4515   -3.1375 C.ar      1 <0>        -0.1920
      6 C5          1.8355   -1.8358   -3.2112 C.ar      1 <0>         0.1953
      7 C6          1.2694   -2.6044   -2.2052 C.ar      1 <0>        -0.6241
      8 C7          0.6606   -1.9914   -1.1272 C.ar      1 <0>        -0.0209
      9 S1          1.3322   -4.3628   -2.2988 S.o2      1 <0>         2.6212
     10 O2          2.6796   -4.7060   -2.5923 O.2       1 <0>        -1.0008
     11 O3          0.6533   -4.8551   -1.1516 O.2       1 <0>        -1.0155
     12 N1          0.4315   -4.8157   -3.6125 N.2       1 <0>        -1.0399
     13 C8          0.3005   -6.1681   -3.9368 C.ar      1 <0>         0.2464
     14 C9         -0.4457   -6.5501   -5.0356 C.ar      1 <0>        -0.0531
     15 C10        -0.5472   -7.9236   -5.3201 C.ar      1 <0>        -0.0298
     16 C11        -1.2875   -8.3881   -6.4201 C.ar      1 <0>        -0.0844
     17 C12        -1.3628   -9.7251   -6.6641 C.ar      1 <0>        -0.1052
     18 C13        -0.7150  -10.6404   -5.8365 C.ar      1 <0>        -0.0786
     19 C14         0.0105  -10.2256   -4.7627 C.ar      1 <0>        -0.1278
     20 C15         0.1129   -8.8525   -4.4772 C.ar      1 <0>         0.0710
     21 N2          0.8204   -8.4199   -3.4290 N.ar      1 <0>        -0.4111
     22 C16         0.9289   -7.1439   -3.1539 C.ar      1 <0>         0.0468
     23 O4          2.4388   -2.4392   -4.2700 O.3       1 <0>        -0.2966
     24 C17         3.0003   -1.5861   -5.2694 C.3       1 <0>         0.0259
     25 H1          1.0053    1.8021    0.0021 H         1 <0>         0.0546
     26 H2         -0.5445    1.7859   -0.8732 H         1 <0>         0.0551
     27 H3         -0.5275    1.7763    0.9067 H         1 <0>         0.1025
     28 H4          1.1343    1.2391   -2.0050 H         1 <0>         0.1380
     29 H5          2.2266    0.1471   -3.9211 H         1 <0>         0.1400
     30 H6          0.2233   -2.5899   -0.3417 H         1 <0>         0.1555
     31 H7         -0.9364   -5.8157   -5.6571 H         1 <0>         0.1667
     32 H8         -1.7943   -7.6883   -7.0681 H         1 <0>         0.1479
     33 H9         -1.9321  -10.0813   -7.5099 H         1 <0>         0.1383
     34 H10        -0.7905  -11.6962   -6.0507 H         1 <0>         0.1396
     35 H11         0.5058  -10.9486   -4.1316 H         1 <0>         0.1412
     36 H12         1.5140   -6.8372   -2.2994 H         1 <0>         0.1746
     37 H13         3.4490   -2.1936   -6.0554 H         1 <0>         0.1054
     38 H14         2.2158   -0.9613   -5.6963 H         1 <0>         0.0588
     39 H15         3.7644   -0.9526   -4.8189 H         1 <0>         0.0573
     40 H16         1.2670   -9.0664   -2.8602 H         1 <0>         0.4352
@<TRIPOS>BOND
     1    1    2 1
     2    1   25 1
     3    1   26 1
     4    1   27 1
     5    2    3 1
     6    3    8 ar
     7    3    4 ar
     8    4    5 ar
     9    4   28 1
    10    5    6 ar
    11    5   29 1
    12    6    7 ar
    13    6   23 1
    14    7    8 ar
    15    7    9 1
    16    8   30 1
    17    9   10 2
    18    9   11 2
    19    9   12 1
    20   12   13 1
    21   13   22 ar
    22   13   14 ar
    23   14   15 ar
    24   14   31 1
    25   15   20 ar
    26   15   16 ar
    27   16   17 ar
    28   16   32 1
    29   17   18 ar
    30   17   33 1
    31   18   19 ar
    32   18   34 1
    33   19   20 ar
    34   19   35 1
    35   20   21 ar
    36   21   22 ar
    37   21   40 1
    38   22   36 1
    39   23   24 1
    40   24   37 1
    41   24   38 1
    42   24   39 1
@<TRIPOS>MOLECULE
ZINC00469853
   34    35     0     0     0
SMALL
USER_CHARGES

@<TRIPOS>ATOM
      1 C1         -0.0173    1.4248    0.0099 C.3       1 <0>         0.0246
      2 O1          0.0021   -0.0041    0.0020 O.3       1 <0>        -0.3125
      3 C2          0.6062   -0.6075   -1.0563 C.ar      1 <0>         0.0747
      4 C3          1.1729    0.1613   -2.0623 C.ar      1 <0>        -0.1092
      5 C4          1.7860   -0.4515   -3.1375 C.ar      1 <0>        -0.1840
      6 C5          1.8355   -1.8358   -3.2112 C.ar      1 <0>         0.1906
      7 C6          1.2694   -2.6044   -2.2052 C.ar      1 <0>        -0.6732
      8 C7          0.6606   -1.9914   -1.1272 C.ar      1 <0>        -0.0165
      9 S1          1.3322   -4.3628   -2.2988 S.o2      1 <0>         2.6995
     10 O2          2.6796   -4.7060   -2.5923 O.2       1 <0>        -0.9325
     11 O3          0.6533   -4.8551   -1.1516 O.2       1 <0>        -0.9468
     12 N1          0.4315   -4.8157   -3.6125 N.pl3     1 <0>        -1.0492
     13 C8          0.8385   -4.4503   -4.8981 C.ar      1 <0>         0.0973
     14 C9         -0.0805   -3.9392   -5.8119 C.ar      1 <0>        -0.0869
     15 C10         0.3710   -3.5912   -7.0741 C.ar      1 <0>        -0.1614
     16 C11         1.7078   -3.7608   -7.3839 C.ar      1 <0>         0.0850
     17 N2          2.5527   -4.2473   -6.4962 N.ar      1 <0>        -0.4659
     18 C12         2.1663   -4.5857   -5.2821 C.ar      1 <0>         0.1123
     19 O4          2.4388   -2.4392   -4.2700 O.3       1 <0>        -0.3046
     20 C13         3.0003   -1.5861   -5.2694 C.3       1 <0>         0.0177
     21 H1          1.0053    1.8021    0.0021 H         1 <0>         0.0565
     22 H2         -0.5445    1.7859   -0.8732 H         1 <0>         0.0560
     23 H3         -0.5275    1.7763    0.9067 H         1 <0>         0.1054
     24 H4          1.1343    1.2391   -2.0050 H         1 <0>         0.1409
     25 H5          2.2266    0.1471   -3.9211 H         1 <0>         0.1420
     26 H6          0.2233   -2.5899   -0.3417 H         1 <0>         0.1594
     27 H7         -0.3786   -5.3348   -3.4895 H         1 <0>         0.4286
     28 H8         -1.1194   -3.8177   -5.5428 H         1 <0>         0.1368
     29 H9         -0.3134   -3.1923   -7.8082 H         1 <0>         0.1371
     30 H10         2.0650   -3.4914   -8.3668 H         1 <0>         0.1575
     31 H11         2.8886   -4.9766   -4.5807 H         1 <0>         0.1840
     32 H12         3.4490   -2.1936   -6.0554 H         1 <0>         0.1171
     33 H13         2.2158   -0.9613   -5.6963 H         1 <0>         0.0574
     34 H14         3.7644   -0.9526   -4.8189 H         1 <0>         0.0622
@<TRIPOS>BOND
     1    1    2 1
     2    1   21 1
     3    1   22 1
     4    1   23 1
     5    2    3 1
     6    3    8 ar
     7    3    4 ar
     8    4    5 ar
     9    4   24 1
    10    5    6 ar
    11    5   25 1
    12    6    7 ar
    13    6   19 1
    14    7    8 ar
    15    7    9 1
    16    8   26 1
    17    9   10 2
    18    9   11 2
    19    9   12 1
    20   12   13 1
    21   12   27 1
    22   13   18 ar
    23   13   14 ar
    24   14   15 ar
    25   14   28 1
    26   15   16 ar
    27   15   29 1
    28   16   17 ar
    29   16   30 1
    30   17   18 ar
    31   18   31 1
    32   19   20 1
    33   20   32 1
    34   20   33 1
    35   20   34 1
@<TRIPOS>MOLECULE
ZINC00469853
   33    34     0     0     0
SMALL
USER_CHARGES

@<TRIPOS>ATOM
      1 C1         -0.0173    1.4248    0.0099 C.3       1 <0>         0.0281
      2 O1          0.0021   -0.0041    0.0020 O.3       1 <0>        -0.3162
      3 C2          0.6262   -0.6187    1.0421 C.ar      1 <0>         0.0610
      4 C3          1.2022    0.1391    2.0511 C.ar      1 <0>        -0.1281
      5 C4          1.8365   -0.4851    3.1073 C.ar      1 <0>        -0.1982
      6 C5          1.8971   -1.8700    3.1593 C.ar      1 <0>         0.1952
      7 C6          1.3209   -2.6277    2.1508 C.ar      1 <0>        -0.6147
      8 C7          0.6819   -2.0033    1.0970 C.ar      1 <0>        -0.0203
      9 S1          1.3979   -4.3868    2.2169 S.o2      1 <0>         2.6119
     10 O2          0.9841   -4.7626    3.5233 O.2       1 <0>        -1.0141
     11 O3          0.7513   -4.8658    1.0457 O.2       1 <0>        -1.0287
     12 N1          2.9928   -4.8123    2.0847 N.2       1 <0>        -1.0749
     13 C8          3.3602   -6.1601    2.1064 C.ar      1 <0>         0.2380
     14 C9          4.6994   -6.5294    2.0018 C.ar      1 <0>        -0.1518
     15 C10         5.0139   -7.8779    2.0281 C.ar      1 <0>        -0.1295
     16 C11         3.9971   -8.8062    2.1563 C.ar      1 <0>        -0.0247
     17 N2          2.7389   -8.4241    2.2532 N.ar      1 <0>        -0.4474
     18 C12         2.3964   -7.1513    2.2382 C.ar      1 <0>        -0.0496
     19 O4          2.5220   -2.4847    4.1989 O.3       1 <0>        -0.2874
     20 C13         3.0937   -1.6424    5.2018 C.3       1 <0>         0.0275
     21 H1          1.0053    1.8021    0.0021 H         1 <0>         0.0522
     22 H2         -0.5445    1.7859   -0.8732 H         1 <0>         0.0979
     23 H3         -0.5275    1.7763    0.9067 H         1 <0>         0.0514
     24 H4          1.1550    1.2173    2.0106 H         1 <0>         0.1321
     25 H5          2.2856    0.1049    3.8925 H         1 <0>         0.1350
     26 H6          0.2295   -2.5934    0.3137 H         1 <0>         0.1537
     27 H7          5.4732   -5.7826    1.9022 H         1 <0>         0.1205
     28 H8          6.0415   -8.2008    1.9491 H         1 <0>         0.1143
     29 H9          4.2370   -9.8590    2.1770 H         1 <0>         0.1325
     30 H10         1.3554   -6.8767    2.3246 H         1 <0>         0.1243
     31 H11         3.5596   -2.2582    5.9711 H         1 <0>         0.1029
     32 H12         3.8458   -0.9966    4.7485 H         1 <0>         0.0548
     33 H13         2.3118   -1.0299    5.6508 H         1 <0>         0.0525
@<TRIPOS>BOND
     1    1    2 1
     2    1   21 1
     3    1   22 1
     4    1   23 1
     5    2    3 1
     6    3    8 ar
     7    3    4 ar
     8    4    5 ar
     9    4   24 1
    10    5    6 ar
    11    5   25 1
    12    6    7 ar
    13    6   19 1
    14    7    8 ar
    15    7    9 1
    16    8   26 1
    17    9   10 2
    18    9   11 2
    19    9   12 1
    20   12   13 1
    21   13   18 ar
    22   13   14 ar
    23   14   15 ar
    24   14   27 1
    25   15   16 ar
    26   15   28 1
    27   16   17 ar
    28   16   29 1
    29   17   18 ar
    30   18   30 1
    31   19   20 1
    32   20   31 1
    33   20   32 1
    34   20   33 1
@<TRIPOS>MOLECULE
ZINC16319438
   30    31     0     0     0
SMALL
USER_CHARGES

@<TRIPOS>ATOM
      1 C1         -0.0173    1.4248    0.0099 C.3       1 <0>         0.0148
      2 O1          0.0021   -0.0041    0.0020 O.3       1 <0>        -0.3010
      3 C2         -1.2007   -0.6377    0.0101 C.ar      1 <0>         0.2170
      4 C3         -2.3747    0.1014    0.0195 C.ar      1 <0>        -0.1957
      5 C4         -3.5961   -0.5437    0.0278 C.ar      1 <0>        -0.0536
      6 C5         -3.6490   -1.9274    0.0266 C.ar      1 <0>         0.0455
      7 C6         -2.4783   -2.6661    0.0177 C.ar      1 <0>        -0.0174
      8 C7         -1.2552   -2.0234    0.0032 C.ar      1 <0>        -0.6878
      9 S1          0.2346   -2.9640   -0.0162 S.o2      1 <0>         2.6999
     10 O2          1.0661   -2.4288    1.0042 O.2       1 <0>        -0.9304
     11 O3         -0.1491   -4.3319   -0.0470 O.2       1 <0>        -0.9458
     12 N1          0.9917   -2.6524   -1.4557 N.pl3     1 <0>        -1.0485
     13 C8          1.4659   -1.3676   -1.7318 C.ar      1 <0>         0.0949
     14 C9          1.2355   -0.7809   -2.9741 C.ar      1 <0>        -0.0866
     15 C10         1.7255    0.4946   -3.2003 C.ar      1 <0>        -0.1607
     16 C11         2.4215    1.1390   -2.1942 C.ar      1 <0>         0.0859
     17 N2          2.6228    0.5562   -1.0287 N.ar      1 <0>        -0.4656
     18 C12         2.1690   -0.6540   -0.7697 C.ar      1 <0>         0.1112
     19 F1         -4.8443   -2.5571    0.0347 F         1 <0>        -0.1317
     20 H1          1.0053    1.8021    0.0021 H         1 <0>         0.1195
     21 H2         -0.5445    1.7859   -0.8732 H         1 <0>         0.0608
     22 H3         -0.5275    1.7763    0.9067 H         1 <0>         0.0657
     23 H4         -2.3337    1.1806    0.0208 H         1 <0>         0.1495
     24 H5         -4.5102    0.0314    0.0355 H         1 <0>         0.1495
     25 H6         -2.5210   -3.7453    0.0171 H         1 <0>         0.1636
     26 H7          1.1059   -3.3619   -2.1072 H         1 <0>         0.4292
     27 H8          0.6887   -1.3078   -3.7421 H         1 <0>         0.1374
     28 H9          1.5660    0.9803   -4.1516 H         1 <0>         0.1379
     29 H10         2.8060    2.1336   -2.3655 H         1 <0>         0.1583
     30 H11         2.3497   -1.0969    0.1986 H         1 <0>         0.1843
@<TRIPOS>BOND
     1    1    2 1
     2    1   20 1
     3    1   21 1
     4    1   22 1
     5    2    3 1
     6    3    8 ar
     7    3    4 ar
     8    4    5 ar
     9    4   23 1
    10    5    6 ar
    11    5   24 1
    12    6    7 ar
    13    6   19 1
    14    7    8 ar
    15    7   25 1
    16    8    9 1
    17    9   10 2
    18    9   11 2
    19    9   12 1
    20   12   13 1
    21   12   26 1
    22   13   18 ar
    23   13   14 ar
    24   14   15 ar
    25   14   27 1
    26   15   16 ar
    27   15   28 1
    28   16   17 ar
    29   16   29 1
    30   17   18 ar
    31   18   30 1
@<TRIPOS>MOLECULE
ZINC16319438
   29    30     0     0     0
SMALL
USER_CHARGES

@<TRIPOS>ATOM
      1 C1         -0.0173    1.4248    0.0099 C.3       1 <0>         0.0250
      2 O1          0.0021   -0.0041    0.0020 O.3       1 <0>        -0.2838
      3 C2          0.6260   -0.6186    1.0418 C.ar      1 <0>         0.2198
      4 C3          1.2023    0.1387    2.0513 C.ar      1 <0>        -0.2086
      5 C4          1.8360   -0.4869    3.1072 C.ar      1 <0>        -0.0736
      6 C5          1.8962   -1.8694    3.1584 C.ar      1 <0>         0.0308
      7 C6          1.3220   -2.6263    2.1516 C.ar      1 <0>        -0.0237
      8 C7          0.6821   -2.0032    1.0974 C.ar      1 <0>        -0.6278
      9 S1         -0.0556   -2.9671   -0.1799 S.o2      1 <0>         2.6103
     10 O2          0.3989   -2.4246   -1.4121 O.2       1 <0>        -1.0123
     11 O3          0.1438   -4.3292    0.1726 O.2       1 <0>        -1.0281
     12 N1         -1.6881   -2.6961   -0.1170 N.2       1 <0>        -1.0749
     13 C8         -2.5378   -3.3359   -1.0228 C.ar      1 <0>         0.2372
     14 C9         -3.9121   -3.1110   -0.9827 C.ar      1 <0>        -0.1511
     15 C10        -4.7133   -3.7685   -1.9014 C.ar      1 <0>        -0.1294
     16 C11        -4.1282   -4.6196   -2.8208 C.ar      1 <0>        -0.0233
     17 N2         -2.8237   -4.8112   -2.8326 N.ar      1 <0>        -0.4474
     18 C12        -2.0244   -4.2013   -1.9802 C.ar      1 <0>        -0.0490
     19 F1          2.5163   -2.4801    4.1917 F         1 <0>        -0.1419
     20 H1          1.0053    1.8021    0.0021 H         1 <0>         0.0556
     21 H2         -0.5445    1.7859   -0.8732 H         1 <0>         0.1054
     22 H3         -0.5275    1.7763    0.9067 H         1 <0>         0.0578
     23 H4          1.1558    1.2170    2.0113 H         1 <0>         0.1424
     24 H5          2.2851    0.1024    3.8929 H         1 <0>         0.1400
     25 H6          1.3699   -3.7045    2.1926 H         1 <0>         0.1574
     26 H7         -4.3421   -2.4408   -0.2531 H         1 <0>         0.1209
     27 H8         -5.7828   -3.6184   -1.8995 H         1 <0>         0.1148
     28 H9         -4.7486   -5.1350   -3.5391 H         1 <0>         0.1330
     29 H10        -0.9601   -4.3799   -2.0236 H         1 <0>         0.1242
@<TRIPOS>BOND
     1    1    2 1
     2    1   20 1
     3    1   21 1
     4    1   22 1
     5    2    3 1
     6    3    8 ar
     7    3    4 ar
     8    4    5 ar
     9    4   23 1
    10    5    6 ar
    11    5   24 1
    12    6    7 ar
    13    6   19 1
    14    7    8 ar
    15    7   25 1
    16    8    9 1
    17    9   10 2
    18    9   11 2
    19    9   12 1
    20   12   13 1
    21   13   18 ar
    22   13   14 ar
    23   14   15 ar
    24   14   26 1
    25   15   16 ar
    26   15   27 1
    27   16   17 ar
    28   16   28 1
    29   17   18 ar
    30   18   29 1
@<TRIPOS>MOLECULE
ZINC04970403
   37    38     0     0     0
SMALL
USER_CHARGES

@<TRIPOS>ATOM
      1 C1         -0.0184    1.5028    0.0103 C.3       1 <0>        -0.1179
      2 C2          0.0021   -0.0041    0.0020 C.ar      1 <0>        -0.0138
      3 C3          0.0058   -0.6883   -1.1982 C.ar      1 <0>        -0.1909
      4 C4          0.0251   -2.0749   -1.2058 C.ar      1 <0>         0.1986
      5 C5          0.0406   -2.7749   -0.0083 C.ar      1 <0>        -0.6802
      6 C6          0.0369   -2.0909    1.1915 C.ar      1 <0>        -0.0735
      7 C7          0.0229   -0.7038    1.1991 C.ar      1 <0>         0.0737
      8 O1          0.0250   -0.0303    2.3804 O.3       1 <0>        -0.3109
      9 C8          0.0470   -0.8150    3.5745 C.3       1 <0>         0.0202
     10 S1          0.0646   -4.5367   -0.0180 S.o2      1 <0>         2.6983
     11 O2          1.0909   -4.9240   -0.9213 O.2       1 <0>        -0.9338
     12 O3          0.0500   -4.9506    1.3413 O.2       1 <0>        -0.9520
     13 N1         -1.3658   -5.0422   -0.6820 N.pl3     1 <0>        -1.0498
     14 C9         -1.6548   -4.7568   -2.0188 C.ar      1 <0>         0.0973
     15 C10        -2.9110   -4.2775   -2.3836 C.ar      1 <0>        -0.0869
     16 C11        -3.1497   -4.0092   -3.7212 C.ar      1 <0>        -0.1611
     17 C12        -2.1420   -4.2239   -4.6434 C.ar      1 <0>         0.0852
     18 N2         -0.9633   -4.6785   -4.2658 N.ar      1 <0>        -0.4656
     19 C13        -0.6923   -4.9413   -3.0029 C.ar      1 <0>         0.1124
     20 O4          0.0283   -2.7483   -2.3872 O.3       1 <0>        -0.3048
     21 C14         0.0111   -1.9636   -3.5813 C.3       1 <0>         0.0174
     22 H1          1.0042    1.8801    0.0026 H         1 <0>         0.0816
     23 H2         -0.5455    1.8639   -0.8728 H         1 <0>         0.0726
     24 H3         -0.5286    1.8543    0.9071 H         1 <0>         0.0804
     25 H4         -0.0067   -0.1432   -2.1305 H         1 <0>         0.1455
     26 H5          0.0483   -2.6360    2.1238 H         1 <0>         0.1545
     27 H6          0.0462   -0.1557    4.4425 H         1 <0>         0.1058
     28 H7         -0.8341   -1.4560    3.6044 H         1 <0>         0.0584
     29 H8          0.9456   -1.4317    3.5875 H         1 <0>         0.0592
     30 H9         -2.0030   -5.5364   -0.1429 H         1 <0>         0.4278
     31 H10        -3.6798   -4.1194   -1.6418 H         1 <0>         0.1363
     32 H11        -4.1119   -3.6369   -4.0404 H         1 <0>         0.1372
     33 H12        -2.3231   -4.0166   -5.6878 H         1 <0>         0.1577
     34 H13         0.2866   -5.3081   -2.7313 H         1 <0>         0.1836
     35 H14         0.0157   -2.6228   -4.4494 H         1 <0>         0.1168
     36 H15        -0.8877   -1.3471   -3.5981 H         1 <0>         0.0579
     37 H16         0.8921   -1.3223   -3.6074 H         1 <0>         0.0627
@<TRIPOS>BOND
     1    1    2 1
     2    1   22 1
     3    1   23 1
     4    1   24 1
     5    2    7 ar
     6    2    3 ar
     7    3    4 ar
     8    3   25 1
     9    4    5 ar
    10    4   20 1
    11    5    6 ar
    12    5   10 1
    13    6    7 ar
    14    6   26 1
    15    7    8 1
    16    8    9 1
    17    9   27 1
    18    9   28 1
    19    9   29 1
    20   10   11 2
    21   10   12 2
    22   10   13 1
    23   13   14 1
    24   13   30 1
    25   14   19 ar
    26   14   15 ar
    27   15   16 ar
    28   15   31 1
    29   16   17 ar
    30   16   32 1
    31   17   18 ar
    32   17   33 1
    33   18   19 ar
    34   19   34 1
    35   20   21 1
    36   21   35 1
    37   21   36 1
    38   21   37 1
@<TRIPOS>MOLECULE
ZINC04970395
   36    37     0     0     0
SMALL
USER_CHARGES

@<TRIPOS>ATOM
      1 C1          0.0414    0.9086   -0.3486 C.3       1 <0>        -0.1564
      2 C2          0.1136   -0.6042   -0.1317 C.3       1 <0>         0.0513
      3 O1          0.8817   -0.8812    1.0410 O.3       1 <0>        -0.3075
      4 C3          1.1203   -2.1882    1.3279 C.ar      1 <0>         0.2399
      5 C4          0.7169   -3.1783    0.4437 C.ar      1 <0>        -0.2196
      6 C5          0.9601   -4.5059    0.7370 C.ar      1 <0>         0.0246
      7 C6          1.6054   -4.8488    1.9123 C.ar      1 <0>        -0.0965
      8 C7          2.0081   -3.8630    2.7954 C.ar      1 <0>         0.0318
      9 C8          1.7724   -2.5335    2.5024 C.ar      1 <0>        -0.7088
     10 S1          2.2930   -1.2779    3.6236 S.o2      1 <0>         2.6997
     11 O2          2.8669   -1.9432    4.7404 O.2       1 <0>        -0.9458
     12 O3          3.0097   -0.3201    2.8565 O.2       1 <0>        -0.9322
     13 N1          0.9291   -0.5177    4.1751 N.pl3     1 <0>        -1.0461
     14 C9         -0.0120   -1.2282    4.9244 C.ar      1 <0>         0.0900
     15 C10        -1.3702   -1.1293    4.6304 C.ar      1 <0>        -0.0848
     16 C11        -2.2645   -1.8528    5.4017 C.ar      1 <0>        -0.1550
     17 C12        -1.7846   -2.6431    6.4298 C.ar      1 <0>         0.0907
     18 N2         -0.4926   -2.7152    6.6827 N.ar      1 <0>        -0.4587
     19 C13         0.3930   -2.0479    5.9699 C.ar      1 <0>         0.0777
     20 Cl1         1.9095   -6.5181    2.2790 Cl        1 <0>        -0.0505
     21 C14         0.5221   -5.5817   -0.2230 C.3       1 <0>        -0.1328
     22 H1          1.0506    1.3193   -0.3833 H         1 <0>         0.0742
     23 H2         -0.4681    1.1170   -1.2893 H         1 <0>         0.0842
     24 H3         -0.5095    1.3675    0.4724 H         1 <0>         0.0687
     25 H4         -0.8937   -1.0020   -0.0087 H         1 <0>         0.0709
     26 H5          0.5864   -1.0728   -0.9949 H         1 <0>         0.0714
     27 H6          0.2126   -2.9112   -0.4732 H         1 <0>         0.1481
     28 H7          2.5112   -4.1325    3.7123 H         1 <0>         0.1618
     29 H8          0.7835    0.4208    3.9779 H         1 <0>         0.4300
     30 H9         -1.7171   -0.5037    3.8213 H         1 <0>         0.1397
     31 H10        -3.3247   -1.8000    5.2025 H         1 <0>         0.1411
     32 H11        -2.4778   -3.2090    7.0344 H         1 <0>         0.1614
     33 H12         1.4437   -2.1359    6.2041 H         1 <0>         0.1846
     34 H13         1.3229   -5.7812   -0.9351 H         1 <0>         0.0896
     35 H14         0.2935   -6.4921    0.3311 H         1 <0>         0.0842
     36 H15        -0.3668   -5.2500   -0.7595 H         1 <0>         0.0791
@<TRIPOS>BOND
     1    1    2 1
     2    1   22 1
     3    1   23 1
     4    1   24 1
     5    2    3 1
     6    2   25 1
     7    2   26 1
     8    3    4 1
     9    4    9 ar
    10    4    5 ar
    11    5    6 ar
    12    5   27 1
    13    6    7 ar
    14    6   21 1
    15    7    8 ar
    16    7   20 1
    17    8    9 ar
    18    8   28 1
    19    9   10 1
    20   10   11 2
    21   10   12 2
    22   10   13 1
    23   13   14 1
    24   13   29 1
    25   14   19 ar
    26   14   15 ar
    27   15   16 ar
    28   15   30 1
    29   16   17 ar
    30   16   31 1
    31   17   18 ar
    32   17   32 1
    33   18   19 ar
    34   19   33 1
    35   21   34 1
    36   21   35 1
    37   21   36 1
@<TRIPOS>MOLECULE
ZINC04970400
   36    37     0     0     0
SMALL
USER_CHARGES

@<TRIPOS>ATOM
      1 C1         -0.0184    1.5028    0.0103 C.3       1 <0>        -0.1288
      2 C2          0.0021   -0.0041    0.0020 C.ar      1 <0>         0.0122
      3 C3          0.0058   -0.6877   -1.1986 C.ar      1 <0>        -0.2240
      4 C4          0.0251   -2.0747   -1.2056 C.ar      1 <0>         0.2237
      5 C5          0.0406   -2.7720   -0.0061 C.ar      1 <0>        -0.7115
      6 C6          0.0368   -2.0839    1.1915 C.ar      1 <0>         0.0175
      7 C7          0.0229   -0.7011    1.1957 C.ar      1 <0>        -0.1432
      8 C8          0.0251    0.0473    2.5038 C.3       1 <0>        -0.1144
      9 S1          0.0645   -4.5338   -0.0107 S.o2      1 <0>         2.6978
     10 O1          1.0909   -4.9237   -0.9127 O.2       1 <0>        -0.9368
     11 O2          0.0498   -4.9437    1.3499 O.2       1 <0>        -0.9517
     12 N1         -1.3658   -5.0412   -0.6733 N.pl3     1 <0>        -1.0508
     13 C9         -1.6548   -4.7597   -2.0108 C.ar      1 <0>         0.0983
     14 C10        -2.9110   -4.2815   -2.3771 C.ar      1 <0>        -0.0876
     15 C11        -3.1496   -4.0171   -3.7155 C.ar      1 <0>        -0.1612
     16 C12        -2.1419   -4.2345   -4.6371 C.ar      1 <0>         0.0845
     17 N2         -0.9632   -4.6880   -4.2581 N.ar      1 <0>        -0.4658
     18 C13        -0.6922   -4.9471   -2.9943 C.ar      1 <0>         0.1115
     19 O3          0.0283   -2.7494   -2.3852 O.3       1 <0>        -0.3045
     20 C14         0.0111   -1.9665   -3.5805 C.3       1 <0>         0.0181
     21 H1          1.0042    1.8801    0.0026 H         1 <0>         0.0832
     22 H2         -0.5455    1.8639   -0.8728 H         1 <0>         0.0730
     23 H3         -0.5286    1.8543    0.9071 H         1 <0>         0.0789
     24 H4         -0.0067   -0.1427   -2.1310 H         1 <0>         0.1379
     25 H5          0.0489   -2.6262    2.1254 H         1 <0>         0.1499
     26 H6         -1.0019    0.2137    2.8289 H         1 <0>         0.0723
     27 H7          0.5541   -0.5377    3.2561 H         1 <0>         0.0710
     28 H8          0.5247    1.0071    2.3724 H         1 <0>         0.0710
     29 H9         -2.0030   -5.5338   -0.1327 H         1 <0>         0.4276
     30 H10        -3.6798   -4.1212   -1.6358 H         1 <0>         0.1364
     31 H11        -4.1118   -3.6457   -4.0358 H         1 <0>         0.1371
     32 H12        -2.3229   -4.0303   -5.6820 H         1 <0>         0.1575
     33 H13         0.2866   -5.3131   -2.7216 H         1 <0>         0.1837
     34 H14         0.0158   -2.6270   -4.4476 H         1 <0>         0.1167
     35 H15        -0.8876   -1.3500   -3.5982 H         1 <0>         0.0579
     36 H16         0.8921   -1.3252   -3.6075 H         1 <0>         0.0626
@<TRIPOS>BOND
     1    1    2 1
     2    1   21 1
     3    1   22 1
     4    1   23 1
     5    2    7 ar
     6    2    3 ar
     7    3    4 ar
     8    3   24 1
     9    4    5 ar
    10    4   19 1
    11    5    6 ar
    12    5    9 1
    13    6    7 ar
    14    6   25 1
    15    7    8 1
    16    8   26 1
    17    8   27 1
    18    8   28 1
    19    9   10 2
    20    9   11 2
    21    9   12 1
    22   12   13 1
    23   12   29 1
    24   13   18 ar
    25   13   14 ar
    26   14   15 ar
    27   14   30 1
    28   15   16 ar
    29   15   31 1
    30   16   17 ar
    31   16   32 1
    32   17   18 ar
    33   18   33 1
    34   19   20 1
    35   20   34 1
    36   20   35 1
    37   20   36 1
@<TRIPOS>MOLECULE
ZINC45258031
   35    37     0     0     0
SMALL
USER_CHARGES

@<TRIPOS>ATOM
      1 C1         -0.0173    1.4248    0.0099 C.3       1 <0>         0.0242
      2 O1          0.0021   -0.0041    0.0020 O.3       1 <0>        -0.2829
      3 C2          0.6259   -0.6184    1.0416 C.ar      1 <0>         0.2440
      4 C3          1.2024    0.1386    2.0513 C.ar      1 <0>        -0.2299
      5 C4          1.8359   -0.4876    3.1069 C.ar      1 <0>        -0.0116
      6 C5          1.8958   -1.8691    3.1578 C.ar      1 <0>        -0.1557
      7 C6          1.3221   -2.6257    2.1519 C.ar      1 <0>         0.0385
      8 C7          0.6821   -2.0032    1.0974 C.ar      1 <0>        -0.6487
      9 S1         -0.0558   -2.9677   -0.1792 S.o2      1 <0>         2.6078
     10 O2          0.3982   -2.4256   -1.4117 O.2       1 <0>        -1.0123
     11 O3          0.1440   -4.3296    0.1737 O.2       1 <0>        -1.0267
     12 N1         -1.6883   -2.6970   -0.1158 N.2       1 <0>        -1.0672
     13 C8         -2.5381   -3.3373   -1.0209 C.ar      1 <0>         0.2352
     14 C9         -3.9005   -3.1098   -0.9751 C.ar      1 <0>        -0.1758
     15 C10        -4.7136   -3.7783   -1.9078 C.ar      1 <0>        -0.0394
     16 C11        -6.1067   -3.5971   -1.9233 C.ar      1 <0>        -0.1207
     17 C12        -6.8613   -4.2610   -2.8413 C.ar      1 <0>        -0.1155
     18 C13        -6.2700   -5.1191   -3.7667 C.ar      1 <0>        -0.1586
     19 C14        -4.9240   -5.3179   -3.7803 C.ar      1 <0>        -0.0623
     20 C15        -4.1098   -4.6500   -2.8483 C.ar      1 <0>         0.0419
     21 N2         -2.7852   -4.8279   -2.8419 N.ar      1 <0>        -0.4475
     22 C16        -2.0139   -4.2086   -1.9833 C.ar      1 <0>         0.0366
     23 Br1         2.7638   -2.7238    4.6041 Br        1 <0>        -0.0539
     24 H1          1.0053    1.8021    0.0021 H         1 <0>         0.0569
     25 H2         -0.5445    1.7859   -0.8732 H         1 <0>         0.1065
     26 H3         -0.5275    1.7763    0.9067 H         1 <0>         0.0592
     27 H4          1.1561    1.2169    2.0118 H         1 <0>         0.1420
     28 H5          2.2850    0.1013    3.8929 H         1 <0>         0.1377
     29 H6          1.3703   -3.7038    2.1933 H         1 <0>         0.1547
     30 H7         -4.3281   -2.4390   -0.2447 H         1 <0>         0.1274
     31 H8         -6.5762   -2.9353   -1.2106 H         1 <0>         0.1180
     32 H9         -7.9321   -4.1212   -2.8525 H         1 <0>         0.1120
     33 H10        -6.8903   -5.6349   -4.4846 H         1 <0>         0.1135
     34 H11        -4.4824   -5.9867   -4.5042 H         1 <0>         0.1204
     35 H12        -0.9477   -4.3777   -2.0156 H         1 <0>         0.1324
@<TRIPOS>BOND
     1    1    2 1
     2    1   24 1
     3    1   25 1
     4    1   26 1
     5    2    3 1
     6    3    8 ar
     7    3    4 ar
     8    4    5 ar
     9    4   27 1
    10    5    6 ar
    11    5   28 1
    12    6    7 ar
    13    6   23 1
    14    7    8 ar
    15    7   29 1
    16    8    9 1
    17    9   10 2
    18    9   11 2
    19    9   12 1
    20   12   13 1
    21   13   22 ar
    22   13   14 ar
    23   14   15 ar
    24   14   30 1
    25   15   20 ar
    26   15   16 ar
    27   16   17 ar
    28   16   31 1
    29   17   18 ar
    30   17   32 1
    31   18   19 ar
    32   18   33 1
    33   19   20 ar
    34   19   34 1
    35   20   21 ar
    36   21   22 ar
    37   22   35 1
@<TRIPOS>MOLECULE
ZINC45258031
   36    38     0     0     0
SMALL
USER_CHARGES

@<TRIPOS>ATOM
      1 C1         -0.0173    1.4248    0.0099 C.3       1 <0>         0.0227
      2 O1          0.0021   -0.0041    0.0020 O.3       1 <0>        -0.2917
      3 C2         -1.2004   -0.6375    0.0101 C.ar      1 <0>         0.2444
      4 C3         -2.3748    0.1013    0.0195 C.ar      1 <0>        -0.2253
      5 C4         -3.5957   -0.5444    0.0278 C.ar      1 <0>        -0.0018
      6 C5         -3.6482   -1.9270    0.0266 C.ar      1 <0>        -0.1536
      7 C6         -2.4787   -2.6655    0.0177 C.ar      1 <0>         0.0402
      8 C7         -1.2553   -2.0235    0.0032 C.ar      1 <0>        -0.6586
      9 S1          0.2341   -2.9647   -0.0168 S.o2      1 <0>         2.6200
     10 O2          1.0662   -2.4298    1.0034 O.2       1 <0>        -1.0002
     11 O3         -0.1502   -4.3324   -0.0474 O.2       1 <0>        -1.0148
     12 N1          0.9908   -2.6533   -1.4565 N.2       1 <0>        -1.0413
     13 C8          2.2093   -3.2689   -1.7525 C.ar      1 <0>         0.2458
     14 C9          2.8469   -3.0074   -2.9505 C.ar      1 <0>        -0.0517
     15 C10         4.0714   -3.6520   -3.2015 C.ar      1 <0>        -0.0301
     16 C11         4.7781   -3.4359   -4.3963 C.ar      1 <0>        -0.0842
     17 C12         5.9606   -4.0774   -4.6040 C.ar      1 <0>        -0.1048
     18 C13         6.4799   -4.9468   -3.6465 C.ar      1 <0>        -0.0775
     19 C14         5.8221   -5.1793   -2.4783 C.ar      1 <0>        -0.1283
     20 C15         4.5977   -4.5354   -2.2260 C.ar      1 <0>         0.0724
     21 N2          3.9331   -4.7464   -1.0859 N.ar      1 <0>        -0.4113
     22 C16         2.7943   -4.1497   -0.8349 C.ar      1 <0>         0.0468
     23 Br1        -5.3213   -2.8084    0.0379 Br        1 <0>        -0.0413
     24 H1          1.0053    1.8021    0.0021 H         1 <0>         0.1087
     25 H2         -0.5445    1.7859   -0.8732 H         1 <0>         0.0629
     26 H3         -0.5275    1.7763    0.9067 H         1 <0>         0.0614
     27 H4         -2.3342    1.1805    0.0208 H         1 <0>         0.1464
     28 H5         -4.5101    0.0304    0.0355 H         1 <0>         0.1433
     29 H6         -2.5218   -3.7446    0.0172 H         1 <0>         0.1563
     30 H7          2.4175   -2.3287   -3.6725 H         1 <0>         0.1670
     31 H8          4.3853   -2.7650   -5.1459 H         1 <0>         0.1482
     32 H9          6.5033   -3.9107   -5.5228 H         1 <0>         0.1387
     33 H10         7.4197   -5.4444   -3.8350 H         1 <0>         0.1400
     34 H11         6.2389   -5.8565   -1.7474 H         1 <0>         0.1416
     35 H12         2.2921   -4.3454    0.1010 H         1 <0>         0.1744
     36 H13         4.3045   -5.3536   -0.4269 H         1 <0>         0.4355
@<TRIPOS>BOND
     1    1    2 1
     2    1   24 1
     3    1   25 1
     4    1   26 1
     5    2    3 1
     6    3    8 ar
     7    3    4 ar
     8    4    5 ar
     9    4   27 1
    10    5    6 ar
    11    5   28 1
    12    6    7 ar
    13    6   23 1
    14    7    8 ar
    15    7   29 1
    16    8    9 1
    17    9   10 2
    18    9   11 2
    19    9   12 1
    20   12   13 1
    21   13   22 ar
    22   13   14 ar
    23   14   15 ar
    24   14   30 1
    25   15   20 ar
    26   15   16 ar
    27   16   17 ar
    28   16   31 1
    29   17   18 ar
    30   17   32 1
    31   18   19 ar
    32   18   33 1
    33   19   20 ar
    34   19   34 1
    35   20   21 ar
    36   21   22 ar
    37   21   36 1
    38   22   35 1
@<TRIPOS>MOLECULE
ZINC45284946
   38    40     0     0     0
SMALL
USER_CHARGES

@<TRIPOS>ATOM
      1 C1         -0.0184    1.5028    0.0103 C.3       1 <0>        -0.1050
      2 C2          0.0021   -0.0041    0.0020 C.ar      1 <0>        -0.1553
      3 C3          0.0057   -0.6877   -1.2000 C.ar      1 <0>        -0.0416
      4 C4          0.0240   -2.0688   -1.2103 C.ar      1 <0>        -0.2326
      5 C5          0.0391   -2.7702   -0.0132 C.ar      1 <0>         0.2229
      6 C6          0.0359   -2.0821    1.1912 C.ar      1 <0>        -0.6481
      7 C7          0.0229   -0.7005    1.1961 C.ar      1 <0>         0.0070
      8 S1          0.0551   -2.9691    2.7135 S.o2      1 <0>         2.6089
      9 O1          1.0930   -3.9339    2.6083 O.2       1 <0>        -1.0163
     10 O2          0.0202   -1.9976    3.7500 O.2       1 <0>        -1.0314
     11 N1         -1.3672   -3.8121    2.8069 N.2       1 <0>        -1.0678
     12 C8         -1.6317   -4.6145    3.9193 C.ar      1 <0>         0.2361
     13 C9         -2.8150   -5.3242    3.9987 C.ar      1 <0>        -0.1779
     14 C10        -3.0342   -6.1176    5.1389 C.ar      1 <0>        -0.0388
     15 C11        -4.2125   -6.8676    5.2903 C.ar      1 <0>        -0.1210
     16 C12        -4.3894   -7.6244    6.4078 C.ar      1 <0>        -0.1158
     17 C13        -3.4166   -7.6650    7.4050 C.ar      1 <0>        -0.1598
     18 C14        -2.2637   -6.9514    7.2911 C.ar      1 <0>        -0.0619
     19 C15        -2.0431   -6.1577    6.1514 C.ar      1 <0>         0.0403
     20 N2         -0.9185   -5.4484    6.0158 N.ar      1 <0>        -0.4479
     21 C16        -0.6971   -4.7089    4.9575 C.ar      1 <0>         0.0365
     22 O3          0.0567   -4.1291   -0.0207 O.3       1 <0>        -0.2887
     23 C17         0.0584   -4.7708   -1.2975 C.3       1 <0>         0.0274
     24 H1          1.0042    1.8801    0.0026 H         1 <0>         0.0656
     25 H2         -0.5455    1.8639   -0.8728 H         1 <0>         0.0629
     26 H3         -0.5286    1.8543    0.9071 H         1 <0>         0.0669
     27 H4         -0.0061   -0.1413   -2.1315 H         1 <0>         0.1258
     28 H5          0.0261   -2.6023   -2.1493 H         1 <0>         0.1317
     29 H6          0.0245   -0.1642    2.1335 H         1 <0>         0.1440
     30 H7         -3.5495   -5.2708    3.2087 H         1 <0>         0.1268
     31 H8         -4.9737   -6.8435    4.5246 H         1 <0>         0.1177
     32 H9         -5.2955   -8.2006    6.5234 H         1 <0>         0.1116
     33 H10        -3.5807   -8.2725    8.2827 H         1 <0>         0.1131
     34 H11        -1.5206   -6.9941    8.0737 H         1 <0>         0.1200
     35 H12         0.2272   -4.1548    4.8861 H         1 <0>         0.1323
     36 H13        -0.8381   -4.4865   -1.8483 H         1 <0>         0.0560
     37 H14         0.9417   -4.4635   -1.8574 H         1 <0>         0.0536
     38 H15         0.0731   -5.8521   -1.1606 H         1 <0>         0.1030
@<TRIPOS>BOND
     1    1    2 1
     2    1   24 1
     3    1   25 1
     4    1   26 1
     5    2    7 ar
     6    2    3 ar
     7    3    4 ar
     8    3   27 1
     9    4    5 ar
    10    4   28 1
    11    5    6 ar
    12    5   22 1
    13    6    7 ar
    14    6    8 1
    15    7   29 1
    16    8    9 2
    17    8   10 2
    18    8   11 1
    19   11   12 1
    20   12   21 ar
    21   12   13 ar
    22   13   14 ar
    23   13   30 1
    24   14   19 ar
    25   14   15 ar
    26   15   16 ar
    27   15   31 1
    28   16   17 ar
    29   16   32 1
    30   17   18 ar
    31   17   33 1
    32   18   19 ar
    33   18   34 1
    34   19   20 ar
    35   20   21 ar
    36   21   35 1
    37   22   23 1
    38   23   36 1
    39   23   37 1
    40   23   38 1
@<TRIPOS>MOLECULE
ZINC45284946
   39    41     0     0     0
SMALL
USER_CHARGES

@<TRIPOS>ATOM
      1 C1         -0.0184    1.5028    0.0103 C.3       1 <0>        -0.1132
      2 C2          0.0021   -0.0041    0.0020 C.ar      1 <0>        -0.1408
      3 C3          0.0057   -0.6877   -1.2000 C.ar      1 <0>        -0.0218
      4 C4          0.0240   -2.0688   -1.2103 C.ar      1 <0>        -0.2200
      5 C5          0.0391   -2.7702   -0.0132 C.ar      1 <0>         0.2202
      6 C6          0.0359   -2.0821    1.1912 C.ar      1 <0>        -0.7054
      7 C7          0.0229   -0.7005    1.1961 C.ar      1 <0>         0.0134
      8 S1          0.0551   -2.9691    2.7135 S.o2      1 <0>         2.6975
      9 O1          1.0930   -3.9339    2.6083 O.2       1 <0>        -0.9357
     10 O2          0.0202   -1.9976    3.7500 O.2       1 <0>        -0.9494
     11 N1         -1.3672   -3.8121    2.8069 N.pl3     1 <0>        -1.0501
     12 C8         -1.6366   -4.8312    1.8903 C.ar      1 <0>         0.1010
     13 C9         -2.8784   -4.9152    1.2897 C.ar      1 <0>        -0.0760
     14 C10        -3.1001   -5.9593    0.3740 C.ar      1 <0>        -0.0888
     15 C11        -4.3362   -6.1090   -0.2765 C.ar      1 <0>        -0.0985
     16 C12        -4.5136   -7.1319   -1.1570 C.ar      1 <0>        -0.1141
     17 C13        -3.4846   -8.0337   -1.4217 C.ar      1 <0>        -0.1020
     18 C14        -2.2748   -7.9185   -0.8097 C.ar      1 <0>        -0.0932
     19 C15        -2.0518   -6.8749    0.1060 C.ar      1 <0>         0.1179
     20 N2         -0.8720   -6.7398    0.7193 N.ar      1 <0>        -0.4577
     21 C16        -0.6482   -5.7698    1.5705 C.ar      1 <0>         0.1463
     22 O3          0.0567   -4.1291   -0.0207 O.3       1 <0>        -0.3060
     23 C17         0.0584   -4.7708   -1.2975 C.3       1 <0>         0.0192
     24 H1          1.0042    1.8801    0.0026 H         1 <0>         0.0733
     25 H2         -0.5455    1.8639   -0.8728 H         1 <0>         0.0689
     26 H3         -0.5286    1.8543    0.9071 H         1 <0>         0.0708
     27 H4         -0.0061   -0.1413   -2.1315 H         1 <0>         0.1348
     28 H5          0.0261   -2.6023   -2.1493 H         1 <0>         0.1383
     29 H6          0.0245   -0.1642    2.1335 H         1 <0>         0.1502
     30 H7         -3.6556   -4.2006    1.5171 H         1 <0>         0.1422
     31 H8         -5.1413   -5.4168   -0.0788 H         1 <0>         0.1291
     32 H9         -5.4643   -7.2463   -1.6566 H         1 <0>         0.1277
     33 H10        -3.6503   -8.8374   -2.1239 H         1 <0>         0.1302
     34 H11        -1.4885   -8.6265   -1.0264 H         1 <0>         0.1368
     35 H12         0.3212   -5.6948    2.0407 H         1 <0>         0.1883
     36 H13        -0.8381   -4.4865   -1.8483 H         1 <0>         0.0579
     37 H14         0.9417   -4.4635   -1.8574 H         1 <0>         0.0641
     38 H15         0.0731   -5.8521   -1.1606 H         1 <0>         0.1158
     39 H16        -2.0132   -3.5983    3.4982 H         1 <0>         0.4287
@<TRIPOS>BOND
     1    1    2 1
     2    1   24 1
     3    1   25 1
     4    1   26 1
     5    2    7 ar
     6    2    3 ar
     7    3    4 ar
     8    3   27 1
     9    4    5 ar
    10    4   28 1
    11    5    6 ar
    12    5   22 1
    13    6    7 ar
    14    6    8 1
    15    7   29 1
    16    8    9 2
    17    8   10 2
    18    8   11 1
    19   11   12 1
    20   11   39 1
    21   12   21 ar
    22   12   13 ar
    23   13   14 ar
    24   13   30 1
    25   14   19 ar
    26   14   15 ar
    27   15   16 ar
    28   15   31 1
    29   16   17 ar
    30   16   32 1
    31   17   18 ar
    32   17   33 1
    33   18   19 ar
    34   18   34 1
    35   19   20 ar
    36   20   21 ar
    37   21   35 1
    38   22   23 1
    39   23   36 1
    40   23   37 1
    41   23   38 1
@<TRIPOS>MOLECULE
ZINC45284946
   39    41     0     0     0
SMALL
USER_CHARGES

@<TRIPOS>ATOM
      1 C1         -0.0184    1.5028    0.0103 C.3       1 <0>        -0.1097
      2 C2          0.0021   -0.0041    0.0020 C.ar      1 <0>        -0.1473
      3 C3          0.0057   -0.6877   -1.2000 C.ar      1 <0>        -0.0313
      4 C4          0.0240   -2.0688   -1.2103 C.ar      1 <0>        -0.2278
      5 C5          0.0391   -2.7702   -0.0132 C.ar      1 <0>         0.2232
      6 C6          0.0359   -2.0821    1.1912 C.ar      1 <0>        -0.6570
      7 C7          0.0229   -0.7005    1.1961 C.ar      1 <0>         0.0078
      8 S1          0.0551   -2.9691    2.7135 S.o2      1 <0>         2.6198
      9 O1          1.0930   -3.9339    2.6083 O.2       1 <0>        -1.0040
     10 O2          0.0202   -1.9976    3.7500 O.2       1 <0>        -1.0192
     11 N1         -1.3672   -3.8121    2.8069 N.2       1 <0>        -1.0408
     12 C8         -1.6317   -4.6145    3.9193 C.ar      1 <0>         0.2463
     13 C9         -2.8150   -5.3242    3.9987 C.ar      1 <0>        -0.0538
     14 C10        -3.0342   -6.1176    5.1389 C.ar      1 <0>        -0.0297
     15 C11        -4.2125   -6.8676    5.2903 C.ar      1 <0>        -0.0845
     16 C12        -4.3894   -7.6244    6.4078 C.ar      1 <0>        -0.1052
     17 C13        -3.4166   -7.6650    7.4050 C.ar      1 <0>        -0.0787
     18 C14        -2.2637   -6.9514    7.2911 C.ar      1 <0>        -0.1278
     19 C15        -2.0431   -6.1577    6.1514 C.ar      1 <0>         0.0706
     20 N2         -0.9185   -5.4484    6.0158 N.ar      1 <0>        -0.4110
     21 C16        -0.6971   -4.7089    4.9575 C.ar      1 <0>         0.0464
     22 O3          0.0567   -4.1291   -0.0207 O.3       1 <0>        -0.2974
     23 C17         0.0584   -4.7708   -1.2975 C.3       1 <0>         0.0258
     24 H1          1.0042    1.8801    0.0026 H         1 <0>         0.0698
     25 H2         -0.5455    1.8639   -0.8728 H         1 <0>         0.0672
     26 H3         -0.5286    1.8543    0.9071 H         1 <0>         0.0686
     27 H4         -0.0061   -0.1413   -2.1315 H         1 <0>         0.1318
     28 H5          0.0261   -2.6023   -2.1493 H         1 <0>         0.1364
     29 H6          0.0245   -0.1642    2.1335 H         1 <0>         0.1458
     30 H7         -3.5495   -5.2708    3.2087 H         1 <0>         0.1664
     31 H8         -4.9737   -6.8435    4.5246 H         1 <0>         0.1479
     32 H9         -5.2955   -8.2006    6.5234 H         1 <0>         0.1383
     33 H10        -3.5807   -8.2725    8.2827 H         1 <0>         0.1396
     34 H11        -1.5206   -6.9941    8.0737 H         1 <0>         0.1411
     35 H12         0.2272   -4.1548    4.8861 H         1 <0>         0.1743
     36 H13        -0.8381   -4.4865   -1.8483 H         1 <0>         0.0597
     37 H14         0.9417   -4.4635   -1.8574 H         1 <0>         0.0582
     38 H15         0.0731   -5.8521   -1.1606 H         1 <0>         0.1052
     39 H16        -0.2487   -5.4847    6.7164 H         1 <0>         0.4350
@<TRIPOS>BOND
     1    1    2 1
     2    1   24 1
     3    1   25 1
     4    1   26 1
     5    2    7 ar
     6    2    3 ar
     7    3    4 ar
     8    3   27 1
     9    4    5 ar
    10    4   28 1
    11    5    6 ar
    12    5   22 1
    13    6    7 ar
    14    6    8 1
    15    7   29 1
    16    8    9 2
    17    8   10 2
    18    8   11 1
    19   11   12 1
    20   12   21 ar
    21   12   13 ar
    22   13   14 ar
    23   13   30 1
    24   14   19 ar
    25   14   15 ar
    26   15   16 ar
    27   15   31 1
    28   16   17 ar
    29   16   32 1
    30   17   18 ar
    31   17   33 1
    32   18   19 ar
    33   18   34 1
    34   19   20 ar
    35   20   21 ar
    36   20   39 1
    37   21   35 1
    38   22   23 1
    39   23   36 1
    40   23   37 1
    41   23   38 1
@<TRIPOS>MOLECULE
ZINC00863577
   33    34     0     0     0
SMALL
USER_CHARGES

@<TRIPOS>ATOM
      1 C1         -0.0184    1.5028    0.0103 C.3       1 <0>        -0.1132
      2 C2          0.0021   -0.0041    0.0020 C.ar      1 <0>        -0.1411
      3 C3          0.0057   -0.6877   -1.2000 C.ar      1 <0>        -0.0223
      4 C4          0.0240   -2.0688   -1.2103 C.ar      1 <0>        -0.2205
      5 C5          0.0391   -2.7702   -0.0132 C.ar      1 <0>         0.2191
      6 C6          0.0359   -2.0821    1.1912 C.ar      1 <0>        -0.7055
      7 C7          0.0229   -0.7005    1.1961 C.ar      1 <0>         0.0131
      8 S1          0.0551   -2.9691    2.7135 S.o2      1 <0>         2.6975
      9 O1          1.0930   -3.9339    2.6083 O.2       1 <0>        -0.9361
     10 O2          0.0202   -1.9976    3.7500 O.2       1 <0>        -0.9508
     11 N1         -1.3672   -3.8121    2.8069 N.pl3     1 <0>        -1.0504
     12 C8         -1.6366   -4.8313    1.8902 C.ar      1 <0>         0.0977
     13 C9         -2.8862   -4.9220    1.2810 C.ar      1 <0>        -0.0875
     14 C10        -3.1053   -5.9500    0.3791 C.ar      1 <0>        -0.1612
     15 C11        -2.0853   -6.8454    0.1147 C.ar      1 <0>         0.0848
     16 N2         -0.9134   -6.7322    0.7082 N.ar      1 <0>        -0.4658
     17 C12        -0.6608   -5.7658    1.5683 C.ar      1 <0>         0.1116
     18 O3          0.0567   -4.1291   -0.0207 O.3       1 <0>        -0.3049
     19 C13         0.0584   -4.7708   -1.2975 C.3       1 <0>         0.0177
     20 H1          1.0042    1.8801    0.0026 H         1 <0>         0.0733
     21 H2         -0.5455    1.8639   -0.8728 H         1 <0>         0.0690
     22 H3         -0.5286    1.8543    0.9071 H         1 <0>         0.0708
     23 H4         -0.0061   -0.1413   -2.1315 H         1 <0>         0.1348
     24 H5          0.0261   -2.6023   -2.1493 H         1 <0>         0.1385
     25 H6          0.0245   -0.1642    2.1335 H         1 <0>         0.1499
     26 H7         -2.0132   -3.5983    3.4982 H         1 <0>         0.4278
     27 H8         -3.6649   -4.2086    1.5067 H         1 <0>         0.1365
     28 H9         -4.0619   -6.0513   -0.1118 H         1 <0>         0.1373
     29 H10        -2.2511   -7.6490   -0.5875 H         1 <0>         0.1577
     30 H11         0.3131   -5.7028    2.0309 H         1 <0>         0.1837
     31 H12         0.0731   -5.8521   -1.1606 H         1 <0>         0.1168
     32 H13        -0.8381   -4.4865   -1.8483 H         1 <0>         0.0583
     33 H14         0.9417   -4.4635   -1.8574 H         1 <0>         0.0630
@<TRIPOS>BOND
     1    1    2 1
     2    1   20 1
     3    1   21 1
     4    1   22 1
     5    2    7 ar
     6    2    3 ar
     7    3    4 ar
     8    3   23 1
     9    4    5 ar
    10    4   24 1
    11    5    6 ar
    12    5   18 1
    13    6    7 ar
    14    6    8 1
    15    7   25 1
    16    8    9 2
    17    8   10 2
    18    8   11 1
    19   11   12 1
    20   11   26 1
    21   12   17 ar
    22   12   13 ar
    23   13   14 ar
    24   13   27 1
    25   14   15 ar
    26   14   28 1
    27   15   16 ar
    28   15   29 1
    29   16   17 ar
    30   17   30 1
    31   18   19 1
    32   19   31 1
    33   19   32 1
    34   19   33 1
@<TRIPOS>MOLECULE
ZINC00863577
   32    33     0     0     0
SMALL
USER_CHARGES

@<TRIPOS>ATOM
      1 C1         -0.0184    1.5028    0.0103 C.3       1 <0>        -0.1047
      2 C2          0.0021   -0.0041    0.0020 C.ar      1 <0>        -0.1557
      3 C3          0.0057   -0.6877   -1.2000 C.ar      1 <0>        -0.0426
      4 C4          0.0240   -2.0688   -1.2103 C.ar      1 <0>        -0.2329
      5 C5          0.0391   -2.7702   -0.0132 C.ar      1 <0>         0.2224
      6 C6          0.0359   -2.0821    1.1912 C.ar      1 <0>        -0.6481
      7 C7          0.0229   -0.7005    1.1961 C.ar      1 <0>         0.0066
      8 S1          0.0551   -2.9691    2.7135 S.o2      1 <0>         2.6115
      9 O1          1.0930   -3.9339    2.6083 O.2       1 <0>        -1.0175
     10 O2          0.0202   -1.9976    3.7500 O.2       1 <0>        -1.0327
     11 N1         -1.3672   -3.8121    2.8069 N.2       1 <0>        -1.0764
     12 C8         -1.6317   -4.6147    3.9195 C.ar      1 <0>         0.2380
     13 C9         -2.8224   -5.3328    4.0060 C.ar      1 <0>        -0.1525
     14 C10        -3.0391   -6.1143    5.1287 C.ar      1 <0>        -0.1293
     15 C11        -2.0748   -6.1563    6.1189 C.ar      1 <0>        -0.0254
     16 N2         -0.9579   -5.4646    6.0069 N.ar      1 <0>        -0.4474
     17 C12        -0.7091   -4.7129    4.9530 C.ar      1 <0>        -0.0500
     18 O3          0.0567   -4.1291   -0.0207 O.3       1 <0>        -0.2883
     19 C13         0.0584   -4.7708   -1.2975 C.3       1 <0>         0.0274
     20 H1          1.0042    1.8801    0.0026 H         1 <0>         0.0654
     21 H2         -0.5455    1.8639   -0.8728 H         1 <0>         0.0626
     22 H3         -0.5286    1.8543    0.9071 H         1 <0>         0.0667
     23 H4         -0.0061   -0.1413   -2.1315 H         1 <0>         0.1254
     24 H5          0.0261   -2.6023   -2.1493 H         1 <0>         0.1313
     25 H6          0.0245   -0.1642    2.1335 H         1 <0>         0.1437
     26 H7         -3.5584   -5.2810    3.2174 H         1 <0>         0.1202
     27 H8         -3.9509   -6.6843    5.2297 H         1 <0>         0.1142
     28 H9         -2.2391   -6.7640    6.9965 H         1 <0>         0.1325
     29 H10         0.2193   -4.1643    4.8948 H         1 <0>         0.1239
     30 H11        -0.8381   -4.4865   -1.8483 H         1 <0>         0.0556
     31 H12         0.9417   -4.4635   -1.8574 H         1 <0>         0.0533
     32 H13         0.0731   -5.8521   -1.1606 H         1 <0>         0.1027
@<TRIPOS>BOND
     1    1    2 1
     2    1   20 1
     3    1   21 1
     4    1   22 1
     5    2    7 ar
     6    2    3 ar
     7    3    4 ar
     8    3   23 1
     9    4    5 ar
    10    4   24 1
    11    5    6 ar
    12    5   18 1
    13    6    7 ar
    14    6    8 1
    15    7   25 1
    16    8    9 2
    17    8   10 2
    18    8   11 1
    19   11   12 1
    20   12   17 ar
    21   12   13 ar
    22   13   14 ar
    23   13   26 1
    24   14   15 ar
    25   14   27 1
    26   15   16 ar
    27   15   28 1
    28   16   17 ar
    29   17   29 1
    30   18   19 1
    31   19   30 1
    32   19   31 1
    33   19   32 1
@<TRIPOS>MOLECULE
ZINC45300069
   31    32     0     0     0
SMALL
USER_CHARGES

@<TRIPOS>ATOM
      1 C1         -0.0173    1.4248    0.0099 C.3       1 <0>         0.0188
      2 O1          0.0021   -0.0041    0.0020 O.3       1 <0>        -0.2741
      3 C2         -1.2003   -0.6375    0.0101 C.ar      1 <0>         0.2332
      4 C3         -2.3748    0.1012    0.0195 C.ar      1 <0>        -0.1772
      5 C4         -3.5956   -0.5449    0.0272 C.ar      1 <0>         0.0244
      6 C5         -3.6478   -1.9268    0.0256 C.ar      1 <0>        -0.1200
      7 C6         -2.4790   -2.6650    0.0167 C.ar      1 <0>         0.0095
      8 C7         -1.2554   -2.0235    0.0032 C.ar      1 <0>        -0.6100
      9 S1          0.2338   -2.9651   -0.0155 S.o2      1 <0>         2.6037
     10 O2          1.0652   -2.4304    1.0053 O.2       1 <0>        -1.0059
     11 O3         -0.1508   -4.3327   -0.0464 O.2       1 <0>        -1.0211
     12 N1          0.9917   -2.6540   -1.4546 N.2       1 <0>        -1.0732
     13 C8          2.2105   -3.2699   -1.7497 C.ar      1 <0>         0.2351
     14 C9          2.8598   -3.0112   -2.9548 C.ar      1 <0>        -0.1482
     15 C10         4.0657   -3.6459   -3.2017 C.ar      1 <0>        -0.1293
     16 C11         4.5818   -4.5086   -2.2523 C.ar      1 <0>        -0.0189
     17 N2          3.9425   -4.7324   -1.1211 N.ar      1 <0>        -0.4472
     18 C12         2.7955   -4.1449   -0.8435 C.ar      1 <0>        -0.0475
     19 N3         -4.8488    0.2424    0.0377 N.pl3     1 <0>         0.0320
     20 O4         -4.8037    1.4505    0.0395 O.2       1 <0>        -0.1579
     21 O5         -5.9176   -0.3227    0.0445 O.3       1 <0>        -0.1506
     22 H1          1.0053    1.8021    0.0021 H         1 <0>         0.1128
     23 H2         -0.5445    1.7859   -0.8732 H         1 <0>         0.0625
     24 H3         -0.5275    1.7763    0.9067 H         1 <0>         0.0603
     25 H4         -2.3345    1.1804    0.0211 H         1 <0>         0.1619
     26 H5         -4.6033   -2.4301    0.0316 H         1 <0>         0.1599
     27 H6         -2.5224   -3.7442    0.0158 H         1 <0>         0.1702
     28 H7          2.4332   -2.3327   -3.6787 H         1 <0>         0.1218
     29 H8          4.5967   -3.4694   -4.1255 H         1 <0>         0.1163
     30 H9          5.5217   -5.0064   -2.4401 H         1 <0>         0.1345
     31 H10         2.3035   -4.3497    0.0959 H         1 <0>         0.1243
@<TRIPOS>BOND
     1    1    2 1
     2    1   22 1
     3    1   23 1
     4    1   24 1
     5    2    3 1
     6    3    8 ar
     7    3    4 ar
     8    4    5 ar
     9    4   25 1
    10    5    6 ar
    11    5   19 1
    12    6    7 ar
    13    6   26 1
    14    7    8 ar
    15    7   27 1
    16    8    9 1
    17    9   10 2
    18    9   11 2
    19    9   12 1
    20   12   13 1
    21   13   18 ar
    22   13   14 ar
    23   14   15 ar
    24   14   28 1
    25   15   16 ar
    26   15   29 1
    27   16   17 ar
    28   16   30 1
    29   17   18 ar
    30   18   31 1
    31   19   20 2
    32   19   21 1
@<TRIPOS>MOLECULE
ZINC45300069
   32    33     0     0     0
SMALL
USER_CHARGES

@<TRIPOS>ATOM
      1 C1         -0.0173    1.4248    0.0099 C.3       1 <0>         0.0085
      2 O1          0.0021   -0.0041    0.0020 O.3       1 <0>        -0.2920
      3 C2          0.6058   -0.6071   -1.0557 C.ar      1 <0>         0.2319
      4 C3          1.1731    0.1608   -2.0625 C.ar      1 <0>        -0.1673
      5 C4          1.7865   -0.4545   -3.1363 C.ar      1 <0>         0.0468
      6 C5          1.8356   -1.8346   -3.2084 C.ar      1 <0>        -0.1168
      7 C6          1.2707   -2.6020   -2.2067 C.ar      1 <0>         0.0237
      8 C7          0.6609   -1.9913   -1.1277 C.ar      1 <0>        -0.6777
      9 S1         -0.0524   -2.9699    0.1522 S.o2      1 <0>         2.6984
     10 O2         -1.3603   -2.4598    0.3724 O.2       1 <0>        -0.9237
     11 O3          0.1879   -4.3273   -0.1927 O.2       1 <0>        -0.9384
     12 N1          0.8103   -2.6729    1.5342 N.pl3     1 <0>        -1.0457
     13 C8          0.7918   -1.3998    2.1092 C.ar      1 <0>         0.0893
     14 C9          1.9733   -0.8030    2.5435 C.ar      1 <0>        -0.0856
     15 C10         1.9038    0.4602    3.1070 C.ar      1 <0>        -0.1598
     16 C11         0.6744    1.0830    3.2193 C.ar      1 <0>         0.0887
     17 N2         -0.4261    0.4911    2.7984 N.ar      1 <0>        -0.4648
     18 C12        -0.4041   -0.7079    2.2511 C.ar      1 <0>         0.1100
     19 N3          2.3914    0.3639   -4.2109 N.pl3     1 <0>         0.0214
     20 O4          2.3485    1.5705   -4.1486 O.2       1 <0>        -0.1427
     21 O5          2.9285   -0.1741   -5.1509 O.3       1 <0>        -0.1332
     22 H1          1.0053    1.8021    0.0021 H         1 <0>         0.0655
     23 H2         -0.5445    1.7859   -0.8732 H         1 <0>         0.0706
     24 H3         -0.5275    1.7763    0.9067 H         1 <0>         0.1261
     25 H4          1.1347    1.2386   -2.0069 H         1 <0>         0.1684
     26 H5          2.3157   -2.3139   -4.0487 H         1 <0>         0.1683
     27 H6          1.3099   -3.6796   -2.2654 H         1 <0>         0.1758
     28 H7          2.9201   -1.3130    2.4436 H         1 <0>         0.1383
     29 H8          2.7996    0.9531    3.4550 H         1 <0>         0.1397
     30 H9          0.6146    2.0679    3.6583 H         1 <0>         0.1604
     31 H10        -1.3258   -1.1586    1.9139 H         1 <0>         0.1849
     32 H11         1.3285   -3.3829    1.9444 H         1 <0>         0.4311
@<TRIPOS>BOND
     1    1    2 1
     2    1   22 1
     3    1   23 1
     4    1   24 1
     5    2    3 1
     6    3    8 ar
     7    3    4 ar
     8    4    5 ar
     9    4   25 1
    10    5    6 ar
    11    5   19 1
    12    6    7 ar
    13    6   26 1
    14    7    8 ar
    15    7   27 1
    16    8    9 1
    17    9   10 2
    18    9   11 2
    19    9   12 1
    20   12   13 1
    21   12   32 1
    22   13   18 ar
    23   13   14 ar
    24   14   15 ar
    25   14   28 1
    26   15   16 ar
    27   15   29 1
    28   16   17 ar
    29   16   30 1
    30   17   18 ar
    31   18   31 1
    32   19   20 2
    33   19   21 1
@<TRIPOS>MOLECULE
ZINC45300069
   32    33     0     0     0
SMALL
USER_CHARGES

@<TRIPOS>ATOM
      1 C1         -0.0173    1.4248    0.0099 C.3       1 <0>         0.0173
      2 O1          0.0021   -0.0041    0.0020 O.3       1 <0>        -0.2839
      3 C2         -1.2003   -0.6375    0.0101 C.ar      1 <0>         0.2348
      4 C3         -2.3748    0.1012    0.0195 C.ar      1 <0>        -0.1739
      5 C4         -3.5956   -0.5449    0.0272 C.ar      1 <0>         0.0366
      6 C5         -3.6478   -1.9268    0.0256 C.ar      1 <0>        -0.1179
      7 C6         -2.4790   -2.6650    0.0167 C.ar      1 <0>         0.0150
      8 C7         -1.2554   -2.0235    0.0032 C.ar      1 <0>        -0.6277
      9 S1          0.2338   -2.9651   -0.0155 S.o2      1 <0>         2.6323
     10 O2          1.0652   -2.4304    1.0053 O.2       1 <0>        -0.9871
     11 O3         -0.1508   -4.3327   -0.0464 O.2       1 <0>        -1.0021
     12 N1          0.9917   -2.6540   -1.4546 N.2       1 <0>        -1.0496
     13 C8          2.2105   -3.2699   -1.7497 C.ar      1 <0>         0.2750
     14 C9          2.7945   -4.1520   -0.8432 C.ar      1 <0>        -0.1652
     15 C10         4.0032   -4.7376   -1.1809 C.ar      1 <0>        -0.0676
     16 C11         4.5864   -4.4305   -2.3964 C.ar      1 <0>        -0.0009
     17 N2          4.0079   -3.5913   -3.2328 N.ar      1 <0>        -0.3919
     18 C12         2.8550   -3.0164   -2.9536 C.ar      1 <0>         0.0408
     19 N3         -4.8488    0.2424    0.0377 N.pl3     1 <0>         0.0256
     20 O4         -4.8037    1.4505    0.0395 O.2       1 <0>        -0.1486
     21 O5         -5.9176   -0.3227    0.0445 O.3       1 <0>        -0.1399
     22 H1          1.0053    1.8021    0.0021 H         1 <0>         0.1150
     23 H2         -0.5445    1.7859   -0.8732 H         1 <0>         0.0659
     24 H3         -0.5275    1.7763    0.9067 H         1 <0>         0.0653
     25 H4         -2.3345    1.1804    0.0211 H         1 <0>         0.1661
     26 H5         -4.6033   -2.4301    0.0316 H         1 <0>         0.1650
     27 H6         -2.5224   -3.7442    0.0158 H         1 <0>         0.1723
     28 H7          2.3166   -4.3733    0.0997 H         1 <0>         0.1414
     29 H8          4.4850   -5.4260   -0.5023 H         1 <0>         0.1650
     30 H9          5.5291   -4.8842   -2.6644 H         1 <0>         0.1885
     31 H10         2.4096   -2.3378   -3.6660 H         1 <0>         0.1961
     32 H11         4.4406   -3.3946   -4.0784 H         1 <0>         0.4382
@<TRIPOS>BOND
     1    1    2 1
     2    1   22 1
     3    1   23 1
     4    1   24 1
     5    2    3 1
     6    3    8 ar
     7    3    4 ar
     8    4    5 ar
     9    4   25 1
    10    5    6 ar
    11    5   19 1
    12    6    7 ar
    13    6   26 1
    14    7    8 ar
    15    7   27 1
    16    8    9 1
    17    9   10 2
    18    9   11 2
    19    9   12 1
    20   12   13 1
    21   13   18 ar
    22   13   14 ar
    23   14   15 ar
    24   14   28 1
    25   15   16 ar
    26   15   29 1
    27   16   17 ar
    28   16   30 1
    29   17   18 ar
    30   17   32 1
    31   18   31 1
    32   19   20 2
    33   19   21 1
@<TRIPOS>MOLECULE
ZINC04970393
   33    34     0     0     0
SMALL
USER_CHARGES

@<TRIPOS>ATOM
      1 C1         -0.0184    1.5028    0.0103 C.3       1 <0>        -0.1327
      2 C2          0.0021   -0.0041    0.0020 C.ar      1 <0>         0.0242
      3 C3          0.0057   -0.6879   -1.1986 C.ar      1 <0>        -0.2167
      4 C4          0.0245   -2.0747   -1.2057 C.ar      1 <0>         0.2348
      5 C5          0.0397   -2.7727   -0.0067 C.ar      1 <0>        -0.7088
      6 C6          0.0360   -2.0855    1.1915 C.ar      1 <0>         0.0309
      7 C7          0.0229   -0.7017    1.1965 C.ar      1 <0>        -0.0979
      8 Cl1         0.0254    0.1598    2.7036 Cl        1 <0>        -0.0520
      9 S1          0.0630   -4.5345   -0.0124 S.o2      1 <0>         2.6998
     10 O1          1.0894   -4.9241   -0.9146 O.2       1 <0>        -0.9320
     11 O2          0.0480   -4.9453    1.3478 O.2       1 <0>        -0.9469
     12 N1         -1.3674   -5.0410   -0.6756 N.pl3     1 <0>        -1.0492
     13 C8         -1.6562   -4.7584   -2.0130 C.ar      1 <0>         0.0958
     14 C9         -2.9121   -4.2796   -2.3791 C.ar      1 <0>        -0.0868
     15 C10        -3.1504   -4.0142   -3.7173 C.ar      1 <0>        -0.1607
     16 C11        -2.1427   -4.2313   -4.6389 C.ar      1 <0>         0.0854
     17 N2         -0.9642   -4.6854   -4.2601 N.ar      1 <0>        -0.4655
     18 C12        -0.6935   -4.9454   -2.9965 C.ar      1 <0>         0.1108
     19 O3          0.0277   -2.7492   -2.3857 O.3       1 <0>        -0.3003
     20 C13         0.0109   -1.9658   -3.5808 C.3       1 <0>         0.0152
     21 H1          1.0042    1.8801    0.0026 H         1 <0>         0.0894
     22 H2         -0.5455    1.8639   -0.8728 H         1 <0>         0.0790
     23 H3         -0.5286    1.8543    0.9071 H         1 <0>         0.0838
     24 H4         -0.0064   -0.1428   -2.1309 H         1 <0>         0.1477
     25 H5          0.0477   -2.6285    2.1250 H         1 <0>         0.1609
     26 H6         -2.0049   -5.5337   -0.1354 H         1 <0>         0.4289
     27 H7         -3.6810   -4.1195   -1.6378 H         1 <0>         0.1372
     28 H8         -4.1125   -3.6422   -4.0375 H         1 <0>         0.1378
     29 H9         -2.3235   -4.0262   -5.6837 H         1 <0>         0.1582
     30 H10         0.2852   -5.3120   -2.7239 H         1 <0>         0.1842
     31 H11        -0.8876   -1.3490   -3.5983 H         1 <0>         0.0607
     32 H12         0.8922   -1.3248   -3.6074 H         1 <0>         0.0655
     33 H13         0.0155   -2.6260   -4.4481 H         1 <0>         0.1194
@<TRIPOS>BOND
     1    1    2 1
     2    1   21 1
     3    1   22 1
     4    1   23 1
     5    2    7 ar
     6    2    3 ar
     7    3    4 ar
     8    3   24 1
     9    4    5 ar
    10    4   19 1
    11    5    6 ar
    12    5    9 1
    13    6    7 ar
    14    6   25 1
    15    7    8 1
    16    9   10 2
    17    9   11 2
    18    9   12 1
    19   12   13 1
    20   12   26 1
    21   13   18 ar
    22   13   14 ar
    23   14   15 ar
    24   14   27 1
    25   15   16 ar
    26   15   28 1
    27   16   17 ar
    28   16   29 1
    29   17   18 ar
    30   18   30 1
    31   19   20 1
    32   20   31 1
    33   20   32 1
    34   20   33 1
@<TRIPOS>MOLECULE
ZINC00384639
   34    35     0     0     0
SMALL
USER_CHARGES

@<TRIPOS>ATOM
      1 C1         -0.0173    1.4248    0.0099 C.3       1 <0>         0.0185
      2 O1          0.0021   -0.0041    0.0020 O.3       1 <0>        -0.3016
      3 C2         -1.2012   -0.6380    0.0101 C.ar      1 <0>         0.0855
      4 C3         -2.3744    0.1013    0.0195 C.ar      1 <0>        -0.0642
      5 C4         -3.5967   -0.5423    0.0272 C.ar      1 <0>        -0.6731
      6 C5         -3.6511   -1.9284    0.0261 C.ar      1 <0>         0.2059
      7 C6         -2.4784   -2.6685    0.0167 C.ar      1 <0>        -0.1807
      8 C7         -1.2551   -2.0247    0.0032 C.ar      1 <0>         0.0260
      9 Cl1         0.2132   -2.9507   -0.0159 Cl        1 <0>        -0.0306
     10 O2         -4.8546   -2.5614    0.0346 O.3       1 <0>        -0.2995
     11 C8         -4.8360   -3.9903    0.0328 C.3       1 <0>         0.0138
     12 S1         -5.0870    0.3977    0.0391 S.o2      1 <0>         2.6992
     13 O3         -5.9011   -0.1449    1.0697 O.2       1 <0>        -0.9295
     14 O4         -4.7044    1.7659    0.0113 O.2       1 <0>        -0.9479
     15 N1         -5.8679    0.0954   -1.3896 N.pl3     1 <0>        -1.0482
     16 C9         -6.3461   -1.1877   -1.6664 C.ar      1 <0>         0.0945
     17 C10        -6.1363   -1.7658   -2.9164 C.ar      1 <0>        -0.0860
     18 C11        -6.6295   -3.0400   -3.1430 C.ar      1 <0>        -0.1606
     19 C12        -7.3083   -3.6916   -2.1298 C.ar      1 <0>         0.0865
     20 N2         -7.4904   -3.1168   -0.9572 N.ar      1 <0>        -0.4654
     21 C13        -7.0327   -1.9082   -0.6976 C.ar      1 <0>         0.1118
     22 H1          1.0053    1.8021    0.0021 H         1 <0>         0.1096
     23 H2         -0.5445    1.7859   -0.8732 H         1 <0>         0.0612
     24 H3         -0.5275    1.7763    0.9067 H         1 <0>         0.0619
     25 H4         -2.3325    1.1805    0.0211 H         1 <0>         0.1642
     26 H5         -2.5209   -3.7477    0.0158 H         1 <0>         0.1563
     27 H6         -5.8588   -4.3670    0.0402 H         1 <0>         0.1200
     28 H7         -4.3243   -4.3459   -0.8615 H         1 <0>         0.0606
     29 H8         -4.3106   -4.3479    0.9184 H         1 <0>         0.0656
     30 H9         -5.9933    0.8093   -2.0342 H         1 <0>         0.4289
     31 H10        -5.6026   -1.2334   -3.6898 H         1 <0>         0.1371
     32 H11        -6.4858   -3.5191   -4.1002 H         1 <0>         0.1380
     33 H12        -7.6952   -4.6852   -2.3015 H         1 <0>         0.1585
     34 H13        -7.1974   -1.4720    0.2765 H         1 <0>         0.1840
@<TRIPOS>BOND
     1    1    2 1
     2    1   22 1
     3    1   23 1
     4    1   24 1
     5    2    3 1
     6    3    8 ar
     7    3    4 ar
     8    4    5 ar
     9    4   25 1
    10    5    6 ar
    11    5   12 1
    12    6    7 ar
    13    6   10 1
    14    7    8 ar
    15    7   26 1
    16    8    9 1
    17   10   11 1
    18   11   27 1
    19   11   28 1
    20   11   29 1
    21   12   13 2
    22   12   14 2
    23   12   15 1
    24   15   16 1
    25   15   30 1
    26   16   21 ar
    27   16   17 ar
    28   17   18 ar
    29   17   31 1
    30   18   19 ar
    31   18   32 1
    32   19   20 ar
    33   19   33 1
    34   20   21 ar
    35   21   34 1
@<TRIPOS>MOLECULE
ZINC00384639
   33    34     0     0     0
SMALL
USER_CHARGES

@<TRIPOS>ATOM
      1 C1         -0.0173    1.4248    0.0099 C.3       1 <0>         0.0205
      2 O1          0.0021   -0.0041    0.0020 O.3       1 <0>        -0.3077
      3 C2          0.6263   -0.6188    1.0423 C.ar      1 <0>         0.0737
      4 C3          1.2021    0.1387    2.0511 C.ar      1 <0>        -0.0674
      5 C4          1.8358   -0.4856    3.1080 C.ar      1 <0>        -0.6117
      6 C5          1.8968   -1.8703    3.1606 C.ar      1 <0>         0.2087
      7 C6          1.3212   -2.6287    2.1522 C.ar      1 <0>        -0.1922
      8 C7          0.6821   -2.0045    1.0973 C.ar      1 <0>         0.0114
      9 Cl1        -0.0449   -2.9534   -0.1616 Cl        1 <0>        -0.0538
     10 O2          2.5214   -2.4843    4.2007 O.3       1 <0>        -0.2818
     11 C8          2.5465   -3.9130    4.1905 C.3       1 <0>         0.0239
     12 S1          2.5672    0.4775    4.3894 S.o2      1 <0>         2.6094
     13 O3          3.8800   -0.0316    4.5811 O.2       1 <0>        -1.0111
     14 O4          2.3176    1.8388    4.0672 O.2       1 <0>        -1.0296
     15 N1          1.7281    0.1590    5.7810 N.2       1 <0>        -1.0736
     16 C9          2.0896    0.7890    6.9745 C.ar      1 <0>         0.2369
     17 C10         1.3944    0.5242    8.1523 C.ar      1 <0>        -0.1505
     18 C11         1.7903    1.1734    9.3099 C.ar      1 <0>        -0.1294
     19 C12         2.8537    2.0558    9.2596 C.ar      1 <0>        -0.0229
     20 N2          3.4914    2.2847    8.1284 N.ar      1 <0>        -0.4475
     21 C13         3.1512    1.6841    7.0054 C.ar      1 <0>        -0.0492
     22 H1          1.0053    1.8021    0.0021 H         1 <0>         0.0586
     23 H2         -0.5445    1.7859   -0.8732 H         1 <0>         0.1025
     24 H3         -0.5275    1.7763    0.9067 H         1 <0>         0.0607
     25 H4          1.1555    1.2169    2.0102 H         1 <0>         0.1594
     26 H5          1.3688   -3.7069    2.1932 H         1 <0>         0.1498
     27 H6          3.0735   -4.2735    5.0739 H         1 <0>         0.1061
     28 H7          1.5254   -4.2944    4.1957 H         1 <0>         0.0579
     29 H8          3.0597   -4.2610    3.2941 H         1 <0>         0.0556
     30 H9          0.5670   -0.1698    8.1625 H         1 <0>         0.1212
     31 H10         1.2741    0.9927   10.2412 H         1 <0>         0.1150
     32 H11         3.1662    2.5648   10.1593 H         1 <0>         0.1332
     33 H12         3.7003    1.8938    6.0994 H         1 <0>         0.1239
@<TRIPOS>BOND
     1    1    2 1
     2    1   22 1
     3    1   23 1
     4    1   24 1
     5    2    3 1
     6    3    8 ar
     7    3    4 ar
     8    4    5 ar
     9    4   25 1
    10    5    6 ar
    11    5   12 1
    12    6    7 ar
    13    6   10 1
    14    7    8 ar
    15    7   26 1
    16    8    9 1
    17   10   11 1
    18   11   27 1
    19   11   28 1
    20   11   29 1
    21   12   13 2
    22   12   14 2
    23   12   15 1
    24   15   16 1
    25   16   21 ar
    26   16   17 ar
    27   17   18 ar
    28   17   30 1
    29   18   19 ar
    30   18   31 1
    31   19   20 ar
    32   19   32 1
    33   20   21 ar
    34   21   33 1
@<TRIPOS>MOLECULE
ZINC00111949
   34    35     0     0     0
SMALL
USER_CHARGES

@<TRIPOS>ATOM
      1 C1         -0.0184    1.5028    0.0103 C.3       1 <0>        -0.1073
      2 C2          0.0021   -0.0041    0.0020 C.ar      1 <0>         0.1925
      3 C3          0.0059   -0.6989   -1.1975 C.ar      1 <0>        -0.2387
      4 C4          0.0249   -2.0845   -1.1608 C.ar      1 <0>         0.1956
      5 N1          0.0386   -2.6990    0.0103 N.ar      1 <0>        -0.5061
      6 C5          0.0345   -2.0049    1.1396 C.ar      1 <0>         0.2961
      7 N2          0.0220   -0.6794    1.1390 N.ar      1 <0>        -0.5382
      8 S1          0.0533   -2.8644    2.6776 S.3       1 <0>         0.0630
      9 C6          0.0411   -1.5421    3.9194 C.3       1 <0>        -0.1738
     10 C7          0.0558   -2.1484    5.2990 C.2       1 <0>         0.4175
     11 O1          0.0727   -3.3540    5.4314 O.2       1 <0>        -0.4281
     12 C8          0.0495   -1.2796    6.4830 C.ar      1 <0>        -0.1583
     13 C9          0.0241    0.1122    6.3325 C.ar      1 <0>        -0.0614
     14 C10         0.0178    0.9243    7.4442 C.ar      1 <0>        -0.1426
     15 C11         0.0370    0.3667    8.7165 C.ar      1 <0>         0.1195
     16 C12         0.0624   -1.0189    8.8748 C.ar      1 <0>         0.0700
     17 C13         0.0631   -1.8408    7.7659 C.ar      1 <0>        -0.0666
     18 O2          0.0817   -1.5602   10.1223 O.3       1 <0>        -0.4830
     19 O3          0.0316    1.1727    9.8087 O.3       1 <0>        -0.4853
     20 C14         0.0292   -2.8812   -2.4401 C.3       1 <0>        -0.1085
     21 H1          1.0042    1.8801    0.0026 H         1 <0>         0.0878
     22 H2         -0.5455    1.8639   -0.8728 H         1 <0>         0.0836
     23 H3         -0.5286    1.8543    0.9071 H         1 <0>         0.0827
     24 H4         -0.0060   -0.1721   -2.1402 H         1 <0>         0.1493
     25 H5          0.9221   -0.9135    3.7894 H         1 <0>         0.1308
     26 H6         -0.8577   -0.9376    3.7977 H         1 <0>         0.1307
     27 H7          0.0098    0.5485    5.3447 H         1 <0>         0.1425
     28 H8         -0.0018    1.9977    7.3269 H         1 <0>         0.1436
     29 H9          0.0786   -2.9139    7.8873 H         1 <0>         0.1480
     30 H10        -0.7960   -1.7322   10.4900 H         1 <0>         0.3910
     31 H11        -0.8532    1.3911   10.1320 H         1 <0>         0.3952
     32 H12         1.0578   -3.0593   -2.7536 H         1 <0>         0.0889
     33 H13        -0.4709   -3.8356   -2.2754 H         1 <0>         0.0855
     34 H14        -0.4961   -2.3248   -3.2163 H         1 <0>         0.0839
@<TRIPOS>BOND
     1    1    2 1
     2    1   21 1
     3    1   22 1
     4    1   23 1
     5    2    7 ar
     6    2    3 ar
     7    3    4 ar
     8    3   24 1
     9    4    5 ar
    10    4   20 1
    11    5    6 ar
    12    6    7 ar
    13    6    8 1
    14    8    9 1
    15    9   10 1
    16    9   25 1
    17    9   26 1
    18   10   11 2
    19   10   12 1
    20   12   17 ar
    21   12   13 ar
    22   13   14 ar
    23   13   27 1
    24   14   15 ar
    25   14   28 1
    26   15   16 ar
    27   15   19 1
    28   16   17 ar
    29   16   18 1
    30   17   29 1
    31   18   30 1
    32   19   31 1
    33   20   32 1
    34   20   33 1
    35   20   34 1
@<TRIPOS>MOLECULE
ZINC00085612
   40    41     0     0     0
SMALL
USER_CHARGES

@<TRIPOS>ATOM
      1 C1         -0.0184    1.5028    0.0103 C.3       1 <0>        -0.1099
      2 C2          0.0021   -0.0041    0.0020 C.ar      1 <0>         0.1772
      3 C3          0.0055   -0.6763   -1.2073 C.ar      1 <0>        -0.1575
      4 C4          0.0247   -2.0599   -1.2182 C.ar      1 <0>         0.0249
      5 C5          0.0401   -2.7345    0.0080 C.ar      1 <0>        -0.0674
      6 C6          0.0354   -1.9808    1.1953 C.ar      1 <0>         0.1602
      7 N1          0.0218   -0.6571    1.1473 N.ar      1 <0>        -0.4928
      8 S1          0.0545   -2.8013    2.7544 S.3       1 <0>         0.0083
      9 C7          0.0416   -1.4483    3.9626 C.3       1 <0>        -0.1656
     10 C8          0.0564   -2.0197    5.3570 C.2       1 <0>         0.4149
     11 O1          0.0739   -3.2215    5.5197 O.2       1 <0>        -0.4284
     12 C9          0.0495   -1.1213    6.5188 C.ar      1 <0>        -0.1589
     13 C10         0.0235    0.2662    6.3333 C.ar      1 <0>        -0.0612
     14 C11         0.0166    1.1060    7.4242 C.ar      1 <0>        -0.1423
     15 C12         0.0361    0.5806    8.7101 C.ar      1 <0>         0.1198
     16 C13         0.0621   -0.8005    8.9033 C.ar      1 <0>         0.0700
     17 C14         0.0633   -1.6501    7.8154 C.ar      1 <0>        -0.0669
     18 O2          0.0815   -1.3103   10.1640 O.3       1 <0>        -0.4830
     19 O3          0.0301    1.4139    9.7817 O.3       1 <0>        -0.4853
     20 C15         0.0598   -4.1657    0.0529 C.1       1 <0>         0.2464
     21 N2          0.0754   -5.3010    0.0884 N.1       1 <0>        -0.3846
     22 C16         0.0285   -2.8217   -2.5184 C.3       1 <0>         0.0930
     23 O4          0.0099   -1.9002   -3.6105 O.3       1 <0>        -0.3836
     24 C17         0.0118   -2.5230   -4.8966 C.3       1 <0>         0.0302
     25 H1          1.0042    1.8801    0.0026 H         1 <0>         0.0877
     26 H2         -0.5455    1.8639   -0.8728 H         1 <0>         0.0843
     27 H3         -0.5286    1.8543    0.9071 H         1 <0>         0.0821
     28 H4         -0.0071   -0.1252   -2.1360 H         1 <0>         0.1589
     29 H5          0.9222   -0.8227    3.8169 H         1 <0>         0.1332
     30 H6         -0.8575   -0.8475    3.8256 H         1 <0>         0.1330
     31 H7          0.0091    0.6775    5.3348 H         1 <0>         0.1431
     32 H8         -0.0035    2.1761    7.2799 H         1 <0>         0.1441
     33 H9          0.0793   -2.7198    7.9638 H         1 <0>         0.1474
     34 H10        -0.7962   -1.4734   10.5358 H         1 <0>         0.3910
     35 H11        -0.8549    1.6399   10.0993 H         1 <0>         0.3954
     36 H12         0.9268   -3.4363   -2.5769 H         1 <0>         0.0779
     37 H13        -0.8530   -3.4611   -2.5675 H         1 <0>         0.0779
     38 H14         0.9097   -3.1314   -5.0044 H         1 <0>         0.0463
     39 H15        -0.8700   -3.1561   -4.9950 H         1 <0>         0.0462
     40 H16        -0.0030   -1.7565   -5.6715 H         1 <0>         0.0939
@<TRIPOS>BOND
     1    1    2 1
     2    1   25 1
     3    1   26 1
     4    1   27 1
     5    2    7 ar
     6    2    3 ar
     7    3    4 ar
     8    3   28 1
     9    4    5 ar
    10    4   22 1
    11    5    6 ar
    12    5   20 1
    13    6    7 ar
    14    6    8 1
    15    8    9 1
    16    9   10 1
    17    9   29 1
    18    9   30 1
    19   10   11 2
    20   10   12 1
    21   12   17 ar
    22   12   13 ar
    23   13   14 ar
    24   13   31 1
    25   14   15 ar
    26   14   32 1
    27   15   16 ar
    28   15   19 1
    29   16   17 ar
    30   16   18 1
    31   17   33 1
    32   18   34 1
    33   19   35 1
    34   20   21 3
    35   22   23 1
    36   22   36 1
    37   22   37 1
    38   23   24 1
    39   24   38 1
    40   24   39 1
    41   24   40 1
