@<TRIPOS>MOLECULE
ZINC03825778
   55    59     0     0     0
SMALL
USER_CHARGES
(2-phenylcyclopropyl)-(2-thiazolidin-3-ylcarbonyl-2,3,3a,4,5,6,7,7a-octahydroindol-1-yl)-methanone
@<TRIPOS>ATOM
      1 C1         -3.2669   -0.2090    3.7102 C.ar      1 <0>        -0.1222
      2 C2         -2.2853    0.5299    4.3438 C.ar      1 <0>        -0.1157
      3 C3         -1.3775    1.2572    3.5971 C.ar      1 <0>        -0.1065
      4 C4         -1.4514    1.2461    2.2168 C.ar      1 <0>        -0.0530
      5 C5         -2.4365    0.5117    1.5833 C.ar      1 <0>        -0.1208
      6 C6         -3.3412   -0.2198    2.3299 C.ar      1 <0>        -0.1178
      7 C7         -0.4620    2.0394    1.4028 C.3       1 <0>        -0.0764
      8 H1         -0.0234    2.9015    1.9053 H         1 <0>         0.1277
      9 C8         -0.7138    2.1518   -0.1029 C.3       1 <0>        -0.1482
     10 C9          0.4220    1.2697    0.4193 C.3       1 <0>        -0.1768
     11 H2          0.2879    0.1896    0.3611 H         1 <0>         0.1206
     12 C10         1.8326    1.7612    0.2201 C.2       1 <0>         0.5772
     13 O1          2.2283    2.7320    0.8299 O.2       1 <0>        -0.5230
     14 N1          2.6544    1.1219   -0.6358 N.am      1 <0>        -0.5879
     15 C11         4.0434    1.4840   -0.9294 C.3       1 <0>         0.1483
     16 H3          4.0486    2.1869   -1.7625 H         1 <0>         0.0710
     17 C12         4.7482    2.1238    0.2451 C.3       1 <0>        -0.1355
     18 C13         4.9243    1.1304    1.3936 C.3       1 <0>        -0.1115
     19 C14         5.7439   -0.0596    0.8830 C.3       1 <0>        -0.1148
     20 C15         4.9540   -0.7600   -0.2199 C.3       1 <0>        -0.1374
     21 C16         4.7250    0.1809   -1.3860 C.3       1 <0>        -0.0924
     22 H4          5.6364    0.3621   -1.9557 H         1 <0>         0.1053
     23 C17         3.5813   -0.4566   -2.2332 C.3       1 <0>        -0.1296
     24 C18         2.3161   -0.0685   -1.4365 C.3       1 <0>         0.1162
     25 H5          1.5039    0.1658   -2.1248 H         1 <0>         0.1045
     26 C19         1.9120   -1.2004   -0.5274 C.2       1 <0>         0.5133
     27 O2          2.1176   -1.1231    0.6654 O.2       1 <0>        -0.4985
     28 N2          1.3220   -2.2985   -1.0398 N.am      1 <0>        -0.6150
     29 C20         0.8238   -3.3659   -0.1889 C.3       1 <0>         0.0992
     30 C21         0.1979   -4.5568   -0.9557 C.3       1 <0>        -0.0639
     31 S1          0.9799   -4.3156   -2.6132 S.3       1 <0>        -0.2695
     32 C22         1.1427   -2.4769   -2.4971 C.3       1 <0>         0.1473
     33 H6         -3.9760   -0.7776    4.2936 H         1 <0>         0.1222
     34 H7         -2.2276    0.5386    5.4222 H         1 <0>         0.1238
     35 H8         -0.6106    1.8345    4.0921 H         1 <0>         0.1236
     36 H9         -2.4970    0.5066    0.5050 H         1 <0>         0.1200
     37 H10        -4.1083   -0.7968    1.8349 H         1 <0>         0.1219
     38 H11        -0.4408    3.0877   -0.5903 H         1 <0>         0.1065
     39 H12        -1.5950    1.6519   -0.5051 H         1 <0>         0.1078
     40 H13         5.7285    2.4764   -0.0755 H         1 <0>         0.0680
     41 H14         4.1610    2.9731    0.5945 H         1 <0>         0.0977
     42 H15         5.4506    1.6118    2.2178 H         1 <0>         0.0591
     43 H16         3.9478    0.7853    1.7333 H         1 <0>         0.0658
     44 H17         6.6940    0.2952    0.4835 H         1 <0>         0.0590
     45 H18         5.9284   -0.7548    1.7019 H         1 <0>         0.0589
     46 H19         5.5110   -1.6323   -0.5620 H         1 <0>         0.0590
     47 H20         3.9915   -1.0826    0.1772 H         1 <0>         0.0880
     48 H21         3.5580   -0.0285   -3.2354 H         1 <0>         0.0952
     49 H22         3.6924   -1.5399   -2.2797 H         1 <0>         0.0897
     50 H23         1.6496   -3.7398    0.4164 H         1 <0>         0.0842
     51 H24         0.0703   -2.9512    0.4808 H         1 <0>         0.0818
     52 H25         0.4903   -5.5097   -0.5146 H         1 <0>         0.1262
     53 H26        -0.8868   -4.4654   -1.0123 H         1 <0>         0.1053
     54 H27         0.2377   -1.9785   -2.8446 H         1 <0>         0.1021
     55 H28         2.0167   -2.1257   -3.0455 H         1 <0>         0.1200
@<TRIPOS>BOND
     1    1    6 ar
     2    1    2 ar
     3    1   33 1
     4    2    3 ar
     5    2   34 1
     6    3    4 ar
     7    3   35 1
     8    4    5 ar
     9    4    7 1
    10    5    6 ar
    11    5   36 1
    12    6   37 1
    13    7    8 1
    14    7   10 1
    15    7    9 1
    16    9   10 1
    17    9   38 1
    18    9   39 1
    19   10   11 1
    20   10   12 1
    21   12   13 2
    22   12   14 am
    23   14   24 1
    24   14   15 1
    25   15   16 1
    26   15   21 1
    27   15   17 1
    28   17   18 1
    29   17   40 1
    30   17   41 1
    31   18   19 1
    32   18   42 1
    33   18   43 1
    34   19   20 1
    35   19   44 1
    36   19   45 1
    37   20   21 1
    38   20   46 1
    39   20   47 1
    40   21   22 1
    41   21   23 1
    42   23   24 1
    43   23   48 1
    44   23   49 1
    45   24   25 1
    46   24   26 1
    47   26   27 2
    48   26   28 am
    49   28   32 1
    50   28   29 1
    51   29   30 1
    52   29   50 1
    53   29   51 1
    54   30   31 1
    55   30   52 1
    56   30   53 1
    57   31   32 1
    58   32   54 1
    59   32   55 1
@<TRIPOS>MOLECULE
ZINC00011622
   44    46     0     0     0
SMALL
USER_CHARGES
benzyl 2-pyrrolidin-1-ylcarbonylpyrrolidine-1-carboxylate
@<TRIPOS>ATOM
      1 C1         -0.0559    4.2672    0.0247 C.ar      1 <0>        -0.1072
      2 C2          1.1505    3.5924    0.0104 C.ar      1 <0>        -0.1231
      3 C3          1.1693    2.2102    0.0028 C.ar      1 <0>        -0.0923
      4 C4         -0.0184    1.5028    0.0103 C.ar      1 <0>        -0.1004
      5 C5         -1.2248    2.1776    0.0197 C.ar      1 <0>        -0.0933
      6 C6         -1.2435    3.5598    0.0318 C.ar      1 <0>        -0.1237
      7 C7          0.0021   -0.0041    0.0020 C.3       1 <0>         0.1302
      8 O1          0.0217   -0.4954    1.3682 O.3       1 <0>        -0.3587
      9 C8          0.0415   -1.8309    1.5373 C.2       1 <0>         0.6739
     10 O2          0.0423   -2.5659    0.5696 O.2       1 <0>        -0.5640
     11 N1          0.0604   -2.3527    2.7798 N.am      1 <0>        -0.5874
     12 C9          0.0682   -1.5808    4.0358 C.3       1 <0>         0.1031
     13 C10        -0.5259   -2.5458    5.0953 C.3       1 <0>        -0.1301
     14 C11         0.0729   -3.9047    4.6457 C.3       1 <0>        -0.1206
     15 C12         0.0830   -3.7859    3.1071 C.3       1 <0>         0.1439
     16 H1         -0.7968   -4.2754    2.6894 H         1 <0>         0.1015
     17 C13         1.3332   -4.4186    2.5524 C.2       1 <0>         0.5252
     18 O3          2.2794   -3.7246    2.2459 O.2       1 <0>        -0.5235
     19 N2          1.3998   -5.7557    2.3968 N.am      1 <0>        -0.6183
     20 C14         0.3341   -6.7114    2.7321 C.3       1 <0>         0.0952
     21 C15         0.8667   -8.1234    2.4095 C.3       1 <0>        -0.1320
     22 C16         2.4056   -7.9300    2.4514 C.3       1 <0>        -0.1339
     23 C17         2.5557   -6.5027    1.8683 C.3       1 <0>         0.1050
     24 H2         -0.0705    5.3471    0.0307 H         1 <0>         0.1253
     25 H3          2.0784    4.1450    0.0049 H         1 <0>         0.1264
     26 H4          2.1118    1.6830   -0.0087 H         1 <0>         0.1251
     27 H5         -2.1527    1.6249    0.0211 H         1 <0>         0.1246
     28 H6         -2.1860    4.0870    0.0433 H         1 <0>         0.1263
     29 H7         -0.8878   -0.3767   -0.5053 H         1 <0>         0.0805
     30 H8          0.8920   -0.3525   -0.5222 H         1 <0>         0.0809
     31 H9          1.0873   -1.3013    4.3030 H         1 <0>         0.0751
     32 H10        -0.5566   -0.6929    3.9393 H         1 <0>         0.0879
     33 H11        -1.6146   -2.5631    5.0460 H         1 <0>         0.0845
     34 H12        -0.1859   -2.2811    6.0965 H         1 <0>         0.0942
     35 H13        -0.5630   -4.7306    4.9645 H         1 <0>         0.0969
     36 H14         1.0855   -4.0290    5.0296 H         1 <0>         0.0851
     37 H15         0.0906   -6.6383    3.7921 H         1 <0>         0.0715
     38 H16        -0.5515   -6.5051    2.1311 H         1 <0>         0.0707
     39 H17         0.5451   -8.4437    1.4185 H         1 <0>         0.0791
     40 H18         0.5472   -8.8390    3.1671 H         1 <0>         0.0853
     41 H19         2.9089   -8.6640    1.8220 H         1 <0>         0.0865
     42 H20         2.7779   -7.9751    3.4748 H         1 <0>         0.0772
     43 H21         2.5224   -6.5323    0.7792 H         1 <0>         0.0692
     44 H22         3.4873   -6.0502    2.2080 H         1 <0>         0.0784
@<TRIPOS>BOND
     1    1    6 ar
     2    1    2 ar
     3    1   24 1
     4    2    3 ar
     5    2   25 1
     6    3    4 ar
     7    3   26 1
     8    4    5 ar
     9    4    7 1
    10    5    6 ar
    11    5   27 1
    12    6   28 1
    13    7    8 1
    14    7   29 1
    15    7   30 1
    16    8    9 1
    17    9   10 2
    18    9   11 am
    19   11   15 1
    20   11   12 1
    21   12   13 1
    22   12   31 1
    23   12   32 1
    24   13   14 1
    25   13   33 1
    26   13   34 1
    27   14   15 1
    28   14   35 1
    29   14   36 1
    30   15   16 1
    31   15   17 1
    32   17   18 2
    33   17   19 am
    34   19   23 1
    35   19   20 1
    36   20   21 1
    37   20   37 1
    38   20   38 1
    39   21   22 1
    40   21   39 1
    41   21   40 1
    42   22   23 1
    43   22   41 1
    44   22   42 1
    45   23   43 1
    46   23   44 1
@<TRIPOS>MOLECULE
ZINC00057064
   44    46     0     0     0
SMALL
USER_CHARGES
benzyl 2-pyrrolidin-1-ylcarbonylpyrrolidine-1-carboxylate
@<TRIPOS>ATOM
      1 C1          5.7176    0.7180    4.1712 C.ar      1 <0>        -0.1073
      2 C2          5.3332    2.0055    3.8463 C.ar      1 <0>        -0.1238
      3 C3          3.9913    2.3320    3.7870 C.ar      1 <0>        -0.0933
      4 C4          3.0338    1.3710    4.0526 C.ar      1 <0>        -0.1004
      5 C5          3.4182    0.0849    4.3826 C.ar      1 <0>        -0.0923
      6 C6          4.7600   -0.2430    4.4367 C.ar      1 <0>        -0.1230
      7 C7          1.5708    1.7271    3.9883 C.3       1 <0>         0.1302
      8 O1          1.0761    1.5001    2.6423 O.3       1 <0>        -0.3588
      9 C8         -0.2229    1.7714    2.4146 C.2       1 <0>         0.6743
     10 O2         -0.9239    2.1867    3.3161 O.2       1 <0>        -0.5639
     11 N1         -0.7456    1.5825    1.1868 N.am      1 <0>        -0.5876
     12 C9         -0.0127    1.0858    0.0080 C.3       1 <0>         0.1029
     13 C10        -0.8063    1.6209   -1.2100 C.3       1 <0>        -0.1303
     14 C11        -2.2686    1.5042   -0.7047 C.3       1 <0>        -0.1207
     15 C12        -2.1430    1.8370    0.7970 C.3       1 <0>         0.1442
     16 H1         -2.3896    2.8852    0.9663 H         1 <0>         0.1015
     17 C13        -3.0695    0.9573    1.5962 C.2       1 <0>         0.5253
     18 O3         -2.6354   -0.0219    2.1651 O.2       1 <0>        -0.5230
     19 N2         -4.3806    1.2586    1.6787 N.am      1 <0>        -0.6184
     20 C14        -5.0358    2.4133    1.0470 C.3       1 <0>         0.0951
     21 C15        -6.5284    2.3623    1.4355 C.3       1 <0>        -0.1316
     22 C16        -6.5193    1.5076    2.7304 C.3       1 <0>        -0.1347
     23 C17        -5.3940    0.4885    2.4225 C.3       1 <0>         0.1053
     24 H2          6.7660    0.4629    4.2178 H         1 <0>         0.1253
     25 H3          6.0814    2.7563    3.6392 H         1 <0>         0.1263
     26 H4          3.6910    3.3380    3.5335 H         1 <0>         0.1246
     27 H5          2.6701   -0.6648    4.5943 H         1 <0>         0.1252
     28 H6          5.0603   -1.2488    4.6909 H         1 <0>         0.1265
     29 H7          1.4406    2.7770    4.2510 H         1 <0>         0.0805
     30 H8          1.0144    1.1054    4.6897 H         1 <0>         0.0808
     31 H9          0.0021   -0.0041    0.0020 H         1 <0>         0.0746
     32 H10         1.0041    1.4783    0.0004 H         1 <0>         0.0878
     33 H11        -0.5471    2.6587   -1.4199 H         1 <0>         0.0841
     34 H12        -0.6449    0.9945   -2.0873 H         1 <0>         0.0945
     35 H13        -2.9095    2.2282   -1.2079 H         1 <0>         0.0972
     36 H14        -2.6464    0.4919   -0.8478 H         1 <0>         0.0851
     37 H15        -4.5877    3.3382    1.4101 H         1 <0>         0.0706
     38 H16        -4.9343    2.3502   -0.0364 H         1 <0>         0.0715
     39 H17        -7.1169    1.8767    0.6571 H         1 <0>         0.0793
     40 H18        -6.9093    3.3635    1.6369 H         1 <0>         0.0849
     41 H19        -7.4751    1.0033    2.8724 H         1 <0>         0.0867
     42 H20        -6.2683    2.1162    3.5992 H         1 <0>         0.0775
     43 H21        -5.7776   -0.3261    1.8083 H         1 <0>         0.0690
     44 H22        -4.9700    0.0980    3.3477 H         1 <0>         0.0783
@<TRIPOS>BOND
     1    1    6 ar
     2    1    2 ar
     3    1   24 1
     4    2    3 ar
     5    2   25 1
     6    3    4 ar
     7    3   26 1
     8    4    5 ar
     9    4    7 1
    10    5    6 ar
    11    5   27 1
    12    6   28 1
    13    7    8 1
    14    7   29 1
    15    7   30 1
    16    8    9 1
    17    9   10 2
    18    9   11 am
    19   11   15 1
    20   11   12 1
    21   12   13 1
    22   12   31 1
    23   12   32 1
    24   13   14 1
    25   13   33 1
    26   13   34 1
    27   14   15 1
    28   14   35 1
    29   14   36 1
    30   15   16 1
    31   15   17 1
    32   17   18 2
    33   17   19 am
    34   19   23 1
    35   19   20 1
    36   20   21 1
    37   20   37 1
    38   20   38 1
    39   21   22 1
    40   21   39 1
    41   21   40 1
    42   22   23 1
    43   22   41 1
    44   22   42 1
    45   23   43 1
    46   23   44 1
@<TRIPOS>MOLECULE
ZINC14089743
   80    84     0     0     0
SMALL
USER_CHARGES
(3R,4R,4aR,6aR,6bS,8aR,11R,12S,12aR,14aR,14bR)-3-hydroxy-4,6a,6b,8a,11,12,14b-heptamethyl-2,3,4a,5,6,7,8,9,10,11,12,12a,14,14a-tetradecahydro-1H-picene-4-carboxylic acid
@<TRIPOS>ATOM
      1 C1          9.6368    9.7835    0.9299 C.3       1 <0>        -0.1492
      2 C2          9.8034    8.2775    1.1429 C.3       1 <0>        -0.0879
      3 H1         10.2762    8.0927    2.1049 H         1 <0>         0.0662
      4 C3         10.6616    7.6948    0.0180 C.3       1 <0>        -0.1139
      5 C4         10.8484    6.1983    0.2561 C.3       1 <0>        -0.1083
      6 C5          9.4962    5.4863    0.2807 C.3       1 <0>        -0.0467
      7 C6          8.8267    5.5767   -1.0858 C.3       1 <0>        -0.1042
      8 C7          7.5530    4.7350   -1.1263 C.3       1 <0>        -0.1078
      9 C8          6.5669    5.1266   -0.0373 C.3       1 <0>         0.0043
     10 C9          7.2298    5.4142    1.2753 C.2       1 <0>        -0.0882
     11 C10         6.6983    5.0908    2.4266 C.2       1 <0>        -0.1602
     12 C11         5.3925    4.3719    2.5947 C.3       1 <0>        -0.0833
     13 C12         4.5862    4.4320    1.2979 C.3       1 <0>        -0.0543
     14 H2          4.2649    5.4882    1.1706 H         1 <0>         0.0578
     15 C13         5.4769    4.0531    0.1243 C.3       1 <0>        -0.0207
     16 C14         4.6972    3.9053   -1.1772 C.3       1 <0>        -0.1132
     17 C15         3.4836    2.9807   -0.9784 C.3       1 <0>        -0.1101
     18 C16         2.5856    3.6410    0.0678 C.3       1 <0>        -0.0277
     19 H3          2.5215    4.7192   -0.2294 H         1 <0>         0.0394
     20 C17         3.2909    3.6265    1.4174 C.3       1 <0>        -0.0302
     21 C18         2.3918    4.3341    2.4470 C.3       1 <0>        -0.1032
     22 C19         1.0493    3.6153    2.5324 C.3       1 <0>        -0.1444
     23 C20         0.3266    3.6745    1.1942 C.3       1 <0>         0.1260
     24 H4         -0.5983    3.0870    1.2641 H         1 <0>         0.0590
     25 C21         1.1708    3.1131    0.0501 C.3       1 <0>        -0.0798
     26 C22         0.4942    3.5894   -1.2598 C.3       1 <0>        -0.1168
     27 C23         1.1065    1.6087    0.0545 C.2       1 <0>         0.4781
     28 O1          2.1255    0.9605    0.0924 O.co2     1 <0>        -0.6206
     29 O2         -0.0269    5.0303    0.8987 O.3       1 <0>        -0.5680
     30 C24         3.5551    2.2119    1.9203 C.3       1 <0>        -0.1332
     31 C25         6.1953    2.7251    0.4114 C.3       1 <0>        -0.1591
     32 C26         8.5793    6.1040    1.3347 C.3       1 <0>        -0.0274
     33 H5          9.0203    5.9366    2.3293 H         1 <0>         0.0655
     34 C27         8.4257    7.6046    1.1116 C.3       1 <0>        -0.0781
     35 H6          7.9749    7.8036    0.1409 H         1 <0>         0.0771
     36 C28         7.5582    8.2160    2.2153 C.3       1 <0>        -0.1497
     37 C29         5.8798    6.4213   -0.4979 C.3       1 <0>        -0.1503
     38 C30         9.7467    4.0148    0.6360 C.3       1 <0>        -0.1467
     39 H7          9.0118   10.1955    1.7221 H         1 <0>         0.0574
     40 H8         10.6149   10.2639    0.9517 H         1 <0>         0.0497
     41 H9          9.1649    9.9638   -0.0360 H         1 <0>         0.0524
     42 H10        10.1720    7.8585   -0.9411 H         1 <0>         0.0631
     43 H11        11.6360    8.1859    0.0145 H         1 <0>         0.0559
     44 H12        11.3499    6.0422    1.2133 H         1 <0>         0.0577
     45 H13        11.4638    5.7752   -0.5389 H         1 <0>         0.0588
     46 H14         9.5223    5.2060   -1.8471 H         1 <0>         0.0536
     47 H15         8.5922    6.6153   -1.3158 H         1 <0>         0.0616
     48 H16         7.8171    3.6845   -1.1160 H         1 <0>         0.0711
     49 H17         7.0689    4.9178   -2.1057 H         1 <0>         0.0538
     50 H18         7.2517    5.3522    3.3198 H         1 <0>         0.0928
     51 H19         4.8243    4.8678    3.3921 H         1 <0>         0.0609
     52 H20         5.5915    3.3506    2.9060 H         1 <0>         0.0780
     53 H21         4.3155    4.8561   -1.5401 H         1 <0>         0.0569
     54 H22         5.3423    3.4663   -1.9427 H         1 <0>         0.0518
     55 H23         3.8070    1.9966   -0.6755 H         1 <0>         0.0946
     56 H24         2.9591    2.9065   -1.9333 H         1 <0>         0.0450
     57 H25         2.8835    4.3071    3.4201 H         1 <0>         0.0518
     58 H26         2.2438    5.3675    2.1401 H         1 <0>         0.0583
     59 H27         1.1723    2.5850    2.8558 H         1 <0>         0.0746
     60 H28         0.4311    4.1235    3.2878 H         1 <0>         0.0468
     61 H29        -0.5406    3.2473   -1.2794 H         1 <0>         0.0531
     62 H30         0.5179    4.6781   -1.3059 H         1 <0>         0.0492
     63 H31         1.0292    3.1777   -2.1156 H         1 <0>         0.0387
     64 H32        -0.5646    5.4543    1.5815 H         1 <0>         0.3598
     65 H33         4.0614    1.6388    1.1436 H         1 <0>         0.0759
     66 H34         4.1844    2.2539    2.8093 H         1 <0>         0.0296
     67 H35         2.6084    1.7315    2.1676 H         1 <0>         0.0606
     68 H36         5.4633    1.9188    0.4588 H         1 <0>         0.0722
     69 H37         6.9110    2.5197   -0.3846 H         1 <0>         0.0493
     70 H38         6.7210    2.7949    1.3637 H         1 <0>         0.0542
     71 H39         8.0284    8.0451    3.1836 H         1 <0>         0.0483
     72 H40         7.4557    9.2878    2.0451 H         1 <0>         0.0529
     73 H41         6.5727    7.7503    2.2027 H         1 <0>         0.0603
     74 H42         5.2165    6.7804    0.2890 H         1 <0>         0.0548
     75 H43         6.6352    7.1780   -0.7097 H         1 <0>         0.0523
     76 H44         5.3002    6.2241   -1.3997 H         1 <0>         0.0597
     77 H45        10.3958    3.5651   -0.1153 H         1 <0>         0.0488
     78 H46        10.2253    3.9534    1.6134 H         1 <0>         0.0477
     79 H47         8.7969    3.4806    0.6624 H         1 <0>         0.0686
     80 O3         -0.0829    0.9877    0.0162 O.co2     1 <0>        -0.7726
@<TRIPOS>BOND
     1    1    2 1
     2    1   39 1
     3    1   40 1
     4    1   41 1
     5    2    3 1
     6    2   34 1
     7    2    4 1
     8    4    5 1
     9    4   42 1
    10    4   43 1
    11    5    6 1
    12    5   44 1
    13    5   45 1
    14    6   32 1
    15    6    7 1
    16    6   38 1
    17    7    8 1
    18    7   46 1
    19    7   47 1
    20    8    9 1
    21    8   48 1
    22    8   49 1
    23    9   15 1
    24    9   10 1
    25    9   37 1
    26   10   11 2
    27   10   32 1
    28   11   12 1
    29   11   50 1
    30   12   13 1
    31   12   51 1
    32   12   52 1
    33   13   14 1
    34   13   20 1
    35   13   15 1
    36   15   16 1
    37   15   31 1
    38   16   17 1
    39   16   53 1
    40   16   54 1
    41   17   18 1
    42   17   55 1
    43   17   56 1
    44   18   19 1
    45   18   25 1
    46   18   20 1
    47   20   21 1
    48   20   30 1
    49   21   22 1
    50   21   57 1
    51   21   58 1
    52   22   23 1
    53   22   59 1
    54   22   60 1
    55   23   24 1
    56   23   25 1
    57   23   29 1
    58   25   26 1
    59   25   27 1
    60   26   61 1
    61   26   62 1
    62   26   63 1
    63   27   28 2
    64   27   80 1
    65   29   64 1
    66   30   65 1
    67   30   66 1
    68   30   67 1
    69   31   68 1
    70   31   69 1
    71   31   70 1
    72   32   33 1
    73   32   34 1
    74   34   35 1
    75   34   36 1
    76   36   71 1
    77   36   72 1
    78   36   73 1
    79   37   74 1
    80   37   75 1
    81   37   76 1
    82   38   77 1
    83   38   78 1
    84   38   79 1
@<TRIPOS>MOLECULE
ZINC03812304
   55    57     0     0     0
SMALL
USER_CHARGES
benzyl 2-[2-(dimethoxymethyl)pyrrolidin-1-yl]carbonylpyrrolidine-1-carboxylate
@<TRIPOS>ATOM
      1 C1         10.4543    3.2252   -2.6810 C.3       1 <0>         0.0183
      2 O1         10.2386    1.8628   -2.3077 O.3       1 <0>        -0.3901
      3 C2          9.3373    1.1606   -3.1660 C.3       1 <0>         0.2327
      4 C3          8.6846    0.0138   -2.3915 C.3       1 <0>         0.1573
      5 H1          8.1495    0.4053   -1.5264 H         1 <0>         0.0960
      6 C4          9.7613   -0.9906   -1.9291 C.3       1 <0>        -0.1173
      7 C5          9.0644   -2.3634   -2.1218 C.3       1 <0>        -0.1336
      8 C6          8.2208   -2.1079   -3.3956 C.3       1 <0>         0.0989
      9 N1          7.7550   -0.7151   -3.2667 N.am      1 <0>        -0.6028
     10 C7          6.6612   -0.1948   -3.8578 C.2       1 <0>         0.5288
     11 O2          6.3722    0.9697   -3.6806 O.2       1 <0>        -0.5268
     12 C8          5.7973   -1.0599   -4.7388 C.3       1 <0>         0.1447
     13 H2          5.6910   -2.0514   -4.2986 H         1 <0>         0.1029
     14 C9          6.4263   -1.1768   -6.1433 C.3       1 <0>        -0.1191
     15 C10         5.1932   -1.1280   -7.0838 C.3       1 <0>        -0.1306
     16 C11         4.2675   -0.1395   -6.3318 C.3       1 <0>         0.1035
     17 N2          4.4737   -0.4414   -4.9036 N.am      1 <0>        -0.5871
     18 C12         3.5966   -0.1872   -3.9124 C.2       1 <0>         0.6739
     19 O3          3.8738   -0.4798   -2.7660 O.2       1 <0>        -0.5632
     20 O4          2.4133    0.3909   -4.1923 O.3       1 <0>        -0.3590
     21 C13         1.5183    0.6350   -3.0754 C.3       1 <0>         0.1303
     22 C14         0.2534    1.2824   -3.5775 C.ar      1 <0>        -0.1004
     23 C15        -0.8174    0.4987   -3.9649 C.ar      1 <0>        -0.0932
     24 C16        -1.9758    1.0925   -4.4304 C.ar      1 <0>        -0.1236
     25 C17        -2.0667    2.4701   -4.4994 C.ar      1 <0>        -0.1072
     26 C18        -0.9962    3.2538   -4.1112 C.ar      1 <0>        -0.1231
     27 C19         0.1639    2.6599   -3.6502 C.ar      1 <0>        -0.0924
     28 O5         10.0564    0.6329   -4.2824 O.3       1 <0>        -0.3836
     29 C20        10.4399    1.6173   -5.2447 C.3       1 <0>         0.0239
     30 H3         11.2351    3.6547   -2.0534 H         1 <0>         0.0913
     31 H4         10.7615    3.2714   -3.7258 H         1 <0>         0.0486
     32 H5          9.5307    3.7888   -2.5486 H         1 <0>         0.0452
     33 H6          8.5663    1.8446   -3.5208 H         1 <0>         0.0689
     34 H7         10.0161   -0.8311   -0.8814 H         1 <0>         0.0856
     35 H8         10.6500   -0.9178   -2.5561 H         1 <0>         0.0905
     36 H9          8.4255   -2.6000   -1.2710 H         1 <0>         0.0779
     37 H10         9.7967   -3.1531   -2.2900 H         1 <0>         0.0890
     38 H11         7.3715   -2.7902   -3.4314 H         1 <0>         0.0783
     39 H12         8.8370   -2.2207   -4.2876 H         1 <0>         0.0781
     40 H13         6.9578   -2.1221   -6.2529 H         1 <0>         0.0984
     41 H14         7.0929   -0.3365   -6.3375 H         1 <0>         0.0841
     42 H15         4.7284   -2.1102   -7.1698 H         1 <0>         0.0845
     43 H16         5.4653   -0.7390   -8.0650 H         1 <0>         0.0940
     44 H17         3.2269   -0.3087   -6.6089 H         1 <0>         0.0880
     45 H18         4.5559    0.8892   -6.5475 H         1 <0>         0.0737
     46 H19         2.0045    1.2958   -2.3578 H         1 <0>         0.0806
     47 H20         1.2749   -0.3109   -2.5914 H         1 <0>         0.0807
     48 H21        -0.7475   -0.5775   -3.9080 H         1 <0>         0.1247
     49 H22        -2.8108    0.4801   -4.7372 H         1 <0>         0.1264
     50 H23        -2.9729    2.9341   -4.8598 H         1 <0>         0.1253
     51 H24        -1.0660    4.3300   -4.1683 H         1 <0>         0.1263
     52 H25         1.0004    3.2722   -3.3472 H         1 <0>         0.1248
     53 H26        10.7140    1.1256   -6.1780 H         1 <0>         0.0866
     54 H27         9.6055    2.2956   -5.4228 H         1 <0>         0.0411
     55 H28        11.2927    2.1816   -4.8672 H         1 <0>         0.0491
@<TRIPOS>BOND
     1    1    2 1
     2    1   30 1
     3    1   31 1
     4    1   32 1
     5    2    3 1
     6    3    4 1
     7    3   28 1
     8    3   33 1
     9    4    5 1
    10    4    9 1
    11    4    6 1
    12    6    7 1
    13    6   34 1
    14    6   35 1
    15    7    8 1
    16    7   36 1
    17    7   37 1
    18    8    9 1
    19    8   38 1
    20    8   39 1
    21    9   10 am
    22   10   11 2
    23   10   12 1
    24   12   13 1
    25   12   17 1
    26   12   14 1
    27   14   15 1
    28   14   40 1
    29   14   41 1
    30   15   16 1
    31   15   42 1
    32   15   43 1
    33   16   17 1
    34   16   44 1
    35   16   45 1
    36   17   18 am
    37   18   19 2
    38   18   20 1
    39   20   21 1
    40   21   22 1
    41   21   46 1
    42   21   47 1
    43   22   27 ar
    44   22   23 ar
    45   23   24 ar
    46   23   48 1
    47   24   25 ar
    48   24   49 1
    49   25   26 ar
    50   25   50 1
    51   26   27 ar
    52   26   51 1
    53   27   52 1
    54   28   29 1
    55   29   53 1
    56   29   54 1
    57   29   55 1
@<TRIPOS>MOLECULE
ZINC13491619
   49    51     0     0     0
SMALL
USER_CHARGES
4-phenyl-1-[(2S)-2-(pyrrolidine-1-carbonyl)pyrrolidin-1-yl]butan-1-one
@<TRIPOS>ATOM
      1 C1         -7.0232   -1.1382    0.0292 C.ar      1 <0>        -0.1255
      2 C2         -6.4981   -0.6887    1.2263 C.ar      1 <0>        -0.1182
      3 C3         -5.4597    0.2238    1.2263 C.ar      1 <0>        -0.1170
      4 C4         -4.9462    0.6865    0.0292 C.ar      1 <0>        -0.0810
      5 C5         -5.4748    0.2411   -1.1678 C.ar      1 <0>        -0.1177
      6 C6         -6.5106   -0.6744   -1.1679 C.ar      1 <0>        -0.1187
      7 C7         -3.8141    1.6813    0.0293 C.3       1 <0>        -0.0808
      8 C8         -2.4789    0.9344    0.0189 C.3       1 <0>        -0.0981
      9 C9         -1.3296    1.9443    0.0189 C.3       1 <0>        -0.1324
     10 C10        -0.0144    1.2086    0.0087 C.2       1 <0>         0.5363
     11 O1          0.0021   -0.0041    0.0020 O.2       1 <0>        -0.5233
     12 N1          1.1435    1.8983    0.0013 N.am      1 <0>        -0.6083
     13 C11         1.2687    3.3672    0.0085 C.3       1 <0>         0.0980
     14 C12         2.6585    3.6498   -0.6147 C.3       1 <0>        -0.1313
     15 C13         3.4999    2.4778   -0.0441 C.3       1 <0>        -0.1241
     16 C14         2.4910    1.3104   -0.0088 C.3       1 <0>         0.1248
     17 H1          2.6169    0.6871   -0.8941 H         1 <0>         0.0997
     18 C15         2.7000    0.4863    1.2355 C.2       1 <0>         0.5232
     19 O2          1.8131    0.3937    2.0576 O.2       1 <0>        -0.5180
     20 N2          3.8725   -0.1477    1.4349 N.am      1 <0>        -0.6213
     21 C16         5.0244   -0.1261    0.5215 C.3       1 <0>         0.0946
     22 C17         6.1240   -1.0079    1.1498 C.3       1 <0>        -0.1322
     23 C18         5.3215   -1.9373    2.0982 C.3       1 <0>        -0.1348
     24 C19         4.2101   -0.9829    2.6019 C.3       1 <0>         0.1054
     25 H2         -7.8342   -1.8514    0.0291 H         1 <0>         0.1206
     26 H3         -6.8988   -1.0508    2.1616 H         1 <0>         0.1213
     27 H4         -5.0494    0.5749    2.1616 H         1 <0>         0.1209
     28 H5         -5.0765    0.6059   -2.1031 H         1 <0>         0.1206
     29 H6         -6.9211   -1.0252   -2.1032 H         1 <0>         0.1212
     30 H7         -3.8761    2.3022    0.9230 H         1 <0>         0.0734
     31 H8         -3.8846    2.3119   -0.8570 H         1 <0>         0.0731
     32 H9         -2.4169    0.3134   -0.8748 H         1 <0>         0.0713
     33 H10        -2.4084    0.3037    0.9051 H         1 <0>         0.0727
     34 H11        -1.3916    2.5653    0.9126 H         1 <0>         0.0941
     35 H12        -1.4000    2.5749   -0.8673 H         1 <0>         0.0930
     36 H13         0.4826    3.8179   -0.5972 H         1 <0>         0.0842
     37 H14         1.2266    3.7465    1.0295 H         1 <0>         0.0719
     38 H15         2.6148    3.6059   -1.7030 H         1 <0>         0.0827
     39 H16         3.0490    4.6106   -0.2794 H         1 <0>         0.0912
     40 H17         4.3369    2.2473   -0.7032 H         1 <0>         0.0932
     41 H18         3.8543    2.7105    0.9600 H         1 <0>         0.0813
     42 H19         4.7349   -0.5271   -0.4498 H         1 <0>         0.0690
     43 H20         5.3896    0.8948    0.4095 H         1 <0>         0.0724
     44 H21         6.8341   -0.4025    1.7130 H         1 <0>         0.0788
     45 H22         6.6373   -1.5891    0.3837 H         1 <0>         0.0844
     46 H23         5.9430   -2.2835    2.9240 H         1 <0>         0.0863
     47 H24         4.8957   -2.7795    1.5528 H         1 <0>         0.0770
     48 H25         4.5832   -0.3629    3.4170 H         1 <0>         0.0679
     49 H26         3.3389   -1.5525    2.9255 H         1 <0>         0.0780
@<TRIPOS>BOND
     1    1    6 ar
     2    1    2 ar
     3    1   25 1
     4    2    3 ar
     5    2   26 1
     6    3    4 ar
     7    3   27 1
     8    4    5 ar
     9    4    7 1
    10    5    6 ar
    11    5   28 1
    12    6   29 1
    13    7    8 1
    14    7   30 1
    15    7   31 1
    16    8    9 1
    17    8   32 1
    18    8   33 1
    19    9   10 1
    20    9   34 1
    21    9   35 1
    22   10   11 2
    23   10   12 am
    24   12   16 1
    25   12   13 1
    26   13   14 1
    27   13   36 1
    28   13   37 1
    29   14   15 1
    30   14   38 1
    31   14   39 1
    32   15   16 1
    33   15   40 1
    34   15   41 1
    35   16   17 1
    36   16   18 1
    37   18   19 2
    38   18   20 am
    39   20   24 1
    40   20   21 1
    41   21   22 1
    42   21   42 1
    43   21   43 1
    44   22   23 1
    45   22   44 1
    46   22   45 1
    47   23   24 1
    48   23   46 1
    49   23   47 1
    50   24   48 1
    51   24   49 1
@<TRIPOS>MOLECULE
ZINC03803304
   63    64     0     0     0
SMALL
USER_CHARGES
[2-(8-dimethylaminooctylsulfanyl)-6-isopropyl-3-pyridyl]-(2-thienyl)methanone
@<TRIPOS>ATOM
      1 C1         -0.9720   10.0719    1.9661 C.3       1 <0>        -0.1425
      2 C2         -1.2315    9.7167    0.5007 C.3       1 <0>        -0.0499
      3 C3         -0.0133   10.1019   -0.3409 C.3       1 <0>        -0.1510
      4 C4         -1.4780    8.2350    0.3789 C.ar      1 <0>         0.1898
      5 C5         -0.4000    7.3745    0.2633 C.ar      1 <0>        -0.1853
      6 C6         -0.6226    6.0134    0.1572 C.ar      1 <0>        -0.0092
      7 C7         -1.9447    5.5534    0.1594 C.ar      1 <0>        -0.2092
      8 C8         -2.9870    6.4898    0.2800 C.ar      1 <0>         0.1633
      9 N1         -2.7162    7.7827    0.3842 N.ar      1 <0>        -0.4930
     10 S1         -4.6614    5.9412    0.2921 S.3       1 <0>         0.0283
     11 C9         -5.5115    7.5299    0.4635 C.3       1 <0>        -0.1410
     12 C10        -7.0234    7.2982    0.4977 C.3       1 <0>        -0.1062
     13 C11        -7.7421    8.6411    0.6426 C.3       1 <0>        -0.1131
     14 C12        -9.2540    8.4094    0.6769 C.3       1 <0>        -0.1217
     15 C13        -9.9726    9.7524    0.8217 C.3       1 <0>        -0.1205
     16 C14       -11.4846    9.5206    0.8560 C.3       1 <0>        -0.1186
     17 C15       -12.2032   10.8636    1.0009 C.3       1 <0>        -0.1508
     18 C16       -13.7152   10.6319    1.0351 C.3       1 <0>        -0.0072
     19 C17       -14.2064   12.7560   -0.0182 C.3       1 <0>        -0.0466
     20 C18       -15.8352   11.7263    1.4480 C.3       1 <0>        -0.0428
     21 C19        -2.2389    4.1130    0.0436 C.2       1 <0>         0.4786
     22 O1         -3.3881    3.7357   -0.0985 O.2       1 <0>        -0.4180
     23 C20        -1.1487    3.1359    0.0995 C.2       1 <0>        -0.2653
     24 C21        -1.1907    1.7650   -0.1136 C.2       1 <0>        -0.0592
     25 C22        -0.0093    1.0782    0.0062 C.2       1 <0>        -0.1821
     26 C23         1.1269    1.7598    0.3120 C.2       1 <0>        -0.1826
     27 S2          0.5803    3.3990    0.4520 S.3       1 <0>         0.1488
     28 H1         -0.7938   11.1436    2.0541 H         1 <0>         0.0683
     29 H2         -1.8400    9.7975    2.5656 H         1 <0>         0.0578
     30 H3         -0.0975    9.5276    2.3224 H         1 <0>         0.0603
     31 H4         -2.1061   10.2610    0.1443 H         1 <0>         0.0923
     32 H5         -0.1981    9.8489   -1.3849 H         1 <0>         0.0600
     33 H6          0.1650   11.1737   -0.2529 H         1 <0>         0.0688
     34 H7          0.8613    9.5577    0.0154 H         1 <0>         0.0639
     35 H8          0.6079    7.7626    0.2601 H         1 <0>         0.1498
     36 H9          0.2033    5.3228    0.0704 H         1 <0>         0.1429
     37 H10        -5.1968    8.0124    1.3888 H         1 <0>         0.0897
     38 H11        -5.2610    8.1692   -0.3830 H         1 <0>         0.0905
     39 H12        -7.3381    6.8157   -0.4276 H         1 <0>         0.0713
     40 H13        -7.2740    6.6589    1.3443 H         1 <0>         0.0708
     41 H14        -7.4274    9.1236    1.5680 H         1 <0>         0.0649
     42 H15        -7.4915    9.2804   -0.2039 H         1 <0>         0.0650
     43 H16        -9.5687    7.9269   -0.2485 H         1 <0>         0.0653
     44 H17        -9.5045    7.7701    1.5234 H         1 <0>         0.0653
     45 H18        -9.6580   10.2349    1.7471 H         1 <0>         0.0661
     46 H19        -9.7221   10.3917   -0.0248 H         1 <0>         0.0658
     47 H20       -11.7993    9.0381   -0.0694 H         1 <0>         0.0736
     48 H21       -11.7351    8.8813    1.7025 H         1 <0>         0.0739
     49 H22       -11.8885   11.3461    1.9262 H         1 <0>         0.0860
     50 H23       -11.9527   11.5029    0.1543 H         1 <0>         0.0864
     51 H24       -14.0299   10.1494    0.1097 H         1 <0>         0.1305
     52 H25       -13.9657    9.9926    1.8816 H         1 <0>         0.1288
     53 H26       -14.6026   12.2402   -0.8929 H         1 <0>         0.1230
     54 H27       -14.7277   13.7045    0.1114 H         1 <0>         0.1222
     55 H28       -13.1416   12.9427   -0.1577 H         1 <0>         0.1219
     56 H29       -15.9545   11.1644    2.3743 H         1 <0>         0.1213
     57 H30       -16.3219   12.6966    1.5464 H         1 <0>         0.1223
     58 H31       -16.2903   11.1732    0.6263 H         1 <0>         0.1226
     59 H32        -2.1136    1.2607   -0.3593 H         1 <0>         0.1491
     60 H33         0.0189    0.0093   -0.1451 H         1 <0>         0.1424
     61 H34         2.1277    1.3735    0.4369 H         1 <0>         0.1919
     62 N2        -14.3936   11.9350    1.1966 N.4       1 <0>        -0.3990
     63 H35       -13.9832   12.4276    1.9986 H         1 <0>         0.4308
@<TRIPOS>BOND
     1    1    2 1
     2    1   28 1
     3    1   29 1
     4    1   30 1
     5    2    3 1
     6    2    4 1
     7    2   31 1
     8    3   32 1
     9    3   33 1
    10    3   34 1
    11    4    9 ar
    12    4    5 ar
    13    5    6 ar
    14    5   35 1
    15    6    7 ar
    16    6   36 1
    17    7    8 ar
    18    7   21 1
    19    8    9 ar
    20    8   10 1
    21   10   11 1
    22   11   12 1
    23   11   37 1
    24   11   38 1
    25   12   13 1
    26   12   39 1
    27   12   40 1
    28   13   14 1
    29   13   41 1
    30   13   42 1
    31   14   15 1
    32   14   43 1
    33   14   44 1
    34   15   16 1
    35   15   45 1
    36   15   46 1
    37   16   17 1
    38   16   47 1
    39   16   48 1
    40   17   18 1
    41   17   49 1
    42   17   50 1
    43   18   51 1
    44   18   52 1
    45   18   62 1
    46   19   53 1
    47   19   54 1
    48   19   55 1
    49   19   62 1
    50   20   56 1
    51   20   57 1
    52   20   58 1
    53   20   62 1
    54   21   22 2
    55   21   23 1
    56   23   27 1
    57   23   24 2
    58   24   25 1
    59   24   59 1
    60   25   26 2
    61   25   60 1
    62   26   27 1
    63   26   61 1
    64   62   63 1
@<TRIPOS>MOLECULE
ZINC03803443
   46    48     0     0     0
SMALL
USER_CHARGES

@<TRIPOS>ATOM
      1 C1         -0.0167    1.3781    0.0096 C.ar      1 <0>        -0.1074
      2 C2          1.1709    2.0855    0.0021 C.ar      1 <0>        -0.1236
      3 C3          2.3773    1.4107   -0.0130 C.ar      1 <0>        -0.0937
      4 C4          2.3960    0.0285   -0.0201 C.ar      1 <0>        -0.0995
      5 C5          1.2084   -0.6789   -0.0117 C.ar      1 <0>        -0.0926
      6 C6          0.0021   -0.0041    0.0020 C.ar      1 <0>        -0.1227
      7 C7          3.7112   -0.7071   -0.0376 C.3       1 <0>         0.1284
      8 O1          4.1410   -0.9464    1.3041 O.3       1 <0>        -0.3532
      9 C8          5.3077   -1.5988    1.4650 C.2       1 <0>         0.6739
     10 O2          5.9435   -1.9553    0.4929 O.2       1 <0>        -0.5617
     11 N1          5.7703   -1.8565    2.7044 N.am      1 <0>        -0.5872
     12 C9          5.1008   -1.4883    3.9652 C.3       1 <0>         0.1024
     13 C10         6.2391   -1.4208    5.0137 C.3       1 <0>        -0.1300
     14 C11         7.1497   -2.5926    4.5607 C.3       1 <0>        -0.1218
     15 C12         7.0230   -2.5570    3.0230 C.3       1 <0>         0.1460
     16 H1          7.8683   -2.0176    2.5956 H         1 <0>         0.1042
     17 C13         6.9783   -3.9609    2.4770 C.2       1 <0>         0.5222
     18 O3          5.9144   -4.4642    2.1845 O.2       1 <0>        -0.5117
     19 N2          8.1207   -4.6572    2.3139 N.am      1 <0>        -0.6089
     20 C14         9.4757   -4.1720    2.6333 C.3       1 <0>         0.0930
     21 C15        10.3103   -5.4550    2.8720 C.3       1 <0>        -0.1330
     22 C16         9.7151   -6.4161    1.8092 C.3       1 <0>        -0.1201
     23 C17         8.2214   -6.0287    1.7939 C.3       1 <0>         0.0717
     24 H2          7.8410   -6.0670    0.7732 H         1 <0>         0.0979
     25 C18         7.4365   -6.9687    2.6721 C.2       1 <0>         0.3418
     26 O4          6.5825   -7.6736    2.1904 O.2       1 <0>        -0.4382
     27 H3         -0.9591    1.9053    0.0259 H         1 <0>         0.1253
     28 H4          1.1563    3.1654    0.0076 H         1 <0>         0.1263
     29 H5          3.3051    1.9634   -0.0196 H         1 <0>         0.1244
     30 H6          1.2231   -1.7588   -0.0176 H         1 <0>         0.1250
     31 H7         -0.9258   -0.5567    0.0082 H         1 <0>         0.1265
     32 H8          3.5884   -1.6586   -0.5549 H         1 <0>         0.0782
     33 H9          4.4573   -0.1052   -0.5563 H         1 <0>         0.0780
     34 H10         4.6166   -0.5166    3.8679 H         1 <0>         0.0890
     35 H11         4.3725   -2.2497    4.2444 H         1 <0>         0.0752
     36 H12         6.7683   -0.4697    4.9552 H         1 <0>         0.0850
     37 H13         5.8546   -1.5910    6.0193 H         1 <0>         0.0953
     38 H14         8.1810   -2.4211    4.8691 H         1 <0>         0.0995
     39 H15         6.7815   -3.5408    4.9525 H         1 <0>         0.0852
     40 H16         9.8827   -3.6050    1.7960 H         1 <0>         0.0776
     41 H17         9.4565   -3.5588    3.5342 H         1 <0>         0.0832
     42 H18        11.3686   -5.2731    2.6851 H         1 <0>         0.0936
     43 H19        10.1537   -5.8412    3.8792 H         1 <0>         0.0825
     44 H20        10.1719   -6.2439    0.8347 H         1 <0>         0.0906
     45 H21         9.8386   -7.4546    2.1162 H         1 <0>         0.0886
     46 H22         7.6377   -7.0119    3.7324 H         1 <0>         0.0949
@<TRIPOS>BOND
     1    1    6 ar
     2    1    2 ar
     3    1   27 1
     4    2    3 ar
     5    2   28 1
     6    3    4 ar
     7    3   29 1
     8    4    5 ar
     9    4    7 1
    10    5    6 ar
    11    5   30 1
    12    6   31 1
    13    7    8 1
    14    7   32 1
    15    7   33 1
    16    8    9 1
    17    9   10 2
    18    9   11 am
    19   11   15 1
    20   11   12 1
    21   12   13 1
    22   12   34 1
    23   12   35 1
    24   13   14 1
    25   13   36 1
    26   13   37 1
    27   14   15 1
    28   14   38 1
    29   14   39 1
    30   15   16 1
    31   15   17 1
    32   17   18 2
    33   17   19 am
    34   19   23 1
    35   19   20 1
    36   20   21 1
    37   20   40 1
    38   20   41 1
    39   21   22 1
    40   21   42 1
    41   21   43 1
    42   22   23 1
    43   22   44 1
    44   22   45 1
    45   23   24 1
    46   23   25 1
    47   25   26 2
    48   25   46 1
@<TRIPOS>MOLECULE
ZINC13648185
   43    44     0     0     0
SMALL
USER_CHARGES
tert-butyl (2S)-2-(pyrrolidine-1-carbonyl)pyrrolidine-1-carboxylate
@<TRIPOS>ATOM
      1 C1          0.7898    0.8544    4.9728 C.3       1 <0>        -0.1828
      2 C2          1.5708    1.7271    3.9883 C.3       1 <0>         0.1364
      3 C3          3.0561    1.3656    4.0535 C.3       1 <0>        -0.1404
      4 C4          1.3880    3.2007    4.3571 C.3       1 <0>        -0.1830
      5 O1          1.0761    1.5001    2.6423 O.3       1 <0>        -0.3589
      6 C5         -0.2229    1.7714    2.4146 C.2       1 <0>         0.6776
      7 O2         -0.9239    2.1867    3.3161 O.2       1 <0>        -0.5595
      8 N1         -0.7456    1.5825    1.1868 N.am      1 <0>        -0.5899
      9 C6         -0.0127    1.0858    0.0080 C.3       1 <0>         0.1027
     10 C7         -0.8063    1.6209   -1.2100 C.3       1 <0>        -0.1304
     11 C8         -2.2686    1.5042   -0.7047 C.3       1 <0>        -0.1210
     12 C9         -2.1430    1.8370    0.7970 C.3       1 <0>         0.1443
     13 H1         -2.3922    2.8845    0.9666 H         1 <0>         0.1007
     14 C10        -3.0667    0.9547    1.5965 C.2       1 <0>         0.5256
     15 O3         -2.6297   -0.0235    2.1649 O.2       1 <0>        -0.5225
     16 N2         -4.3785    1.2525    1.6799 N.am      1 <0>        -0.6186
     17 C11        -5.0371    2.4056    1.0489 C.3       1 <0>         0.0954
     18 C12        -6.5294    2.3507    1.4382 C.3       1 <0>        -0.1316
     19 C13        -6.5173    1.4957    2.7329 C.3       1 <0>        -0.1345
     20 C14        -5.3895    0.4796    2.4241 C.3       1 <0>         0.1055
     21 H2          0.9201   -0.1955    4.7101 H         1 <0>         0.0600
     22 H3          1.1612    1.0248    5.9833 H         1 <0>         0.0704
     23 H4         -0.2683    1.1119    4.9264 H         1 <0>         0.0867
     24 H5          3.6125    1.9874    3.3522 H         1 <0>         0.0666
     25 H6          3.4275    1.5361    5.0640 H         1 <0>         0.0818
     26 H7          3.1863    0.3158    3.7908 H         1 <0>         0.0671
     27 H8          0.3299    3.4583    4.3106 H         1 <0>         0.0858
     28 H9          1.7594    3.3712    5.3676 H         1 <0>         0.0716
     29 H10         1.9444    3.8225    3.6557 H         1 <0>         0.0594
     30 H11         0.0021   -0.0041    0.0020 H         1 <0>         0.0737
     31 H12         1.0041    1.4783    0.0004 H         1 <0>         0.0870
     32 H13        -0.5471    2.6587   -1.4199 H         1 <0>         0.0838
     33 H14        -0.6449    0.9945   -2.0873 H         1 <0>         0.0940
     34 H15        -2.9095    2.2282   -1.2079 H         1 <0>         0.0967
     35 H16        -2.6454    0.4911   -0.8450 H         1 <0>         0.0846
     36 H17        -4.5913    3.3316    1.4119 H         1 <0>         0.0704
     37 H18        -4.9362    2.3430   -0.0346 H         1 <0>         0.0712
     38 H19        -7.1170    1.8637    0.6600 H         1 <0>         0.0792
     39 H20        -6.9128    3.3508    1.6400 H         1 <0>         0.0847
     40 H21        -7.4717    0.9888    2.8753 H         1 <0>         0.0865
     41 H22        -6.2673    2.1048    3.6016 H         1 <0>         0.0773
     42 H23        -5.7713   -0.3359    1.8100 H         1 <0>         0.0687
     43 H24        -4.9640    0.0900    3.3489 H         1 <0>         0.0781
@<TRIPOS>BOND
     1    1    2 1
     2    1   21 1
     3    1   22 1
     4    1   23 1
     5    2    3 1
     6    2    4 1
     7    2    5 1
     8    3   24 1
     9    3   25 1
    10    3   26 1
    11    4   27 1
    12    4   28 1
    13    4   29 1
    14    5    6 1
    15    6    7 2
    16    6    8 am
    17    8   12 1
    18    8    9 1
    19    9   10 1
    20    9   30 1
    21    9   31 1
    22   10   11 1
    23   10   32 1
    24   10   33 1
    25   11   12 1
    26   11   34 1
    27   11   35 1
    28   12   13 1
    29   12   14 1
    30   14   15 2
    31   14   16 am
    32   16   20 1
    33   16   17 1
    34   17   18 1
    35   17   36 1
    36   17   37 1
    37   18   19 1
    38   18   38 1
    39   18   39 1
    40   19   20 1
    41   19   40 1
    42   19   41 1
    43   20   42 1
    44   20   43 1
@<TRIPOS>MOLECULE
ZINC14171803
   60    63     0     0     0
SMALL
USER_CHARGES
4-(4-chloro-2-methyl-phenoxy)-1-[(3S)-3-(pyrrolidine-1-carbonyl)-3,4-dihydro-1H-isoquinolin-2-yl]butan-1-one
@<TRIPOS>ATOM
      1 C1          2.8151   -7.6493    0.1419 C.3       1 <0>        -0.1074
      2 C2          4.2572   -7.2690    0.3585 C.ar      1 <0>        -0.1032
      3 C3          5.2169   -8.2522    0.5047 C.ar      1 <0>        -0.0737
      4 C4          6.5407   -7.9036    0.7044 C.ar      1 <0>        -0.0685
      5 C5          6.9065   -6.5699    0.7572 C.ar      1 <0>        -0.0755
      6 C6          5.9508   -5.5843    0.6062 C.ar      1 <0>        -0.1943
      7 C7          4.6217   -5.9319    0.4116 C.ar      1 <0>         0.1350
      8 O1          3.6791   -4.9633    0.2675 O.3       1 <0>        -0.3049
      9 C8          4.1265   -3.6077    0.3331 C.3       1 <0>         0.0588
     10 C9          2.9333   -2.6675    0.1512 C.3       1 <0>        -0.1036
     11 C10         3.4123   -1.2161    0.2214 C.3       1 <0>        -0.1330
     12 C11         2.2371   -0.2900    0.0422 C.2       1 <0>         0.5136
     13 O2          1.1258   -0.7459   -0.1252 O.2       1 <0>        -0.4947
     14 N1          2.4210    1.0449    0.0680 N.am      1 <0>        -0.6069
     15 C12         3.7641    1.6285    0.1514 C.3       1 <0>         0.1531
     16 C13         3.8821    2.7727   -0.8240 C.ar      1 <0>        -0.1053
     17 C14         5.1458    3.2992   -1.0548 C.ar      1 <0>        -0.1105
     18 C15         5.3147    4.3618   -1.9183 C.ar      1 <0>        -0.1193
     19 C16         4.2168    4.9057   -2.5589 C.ar      1 <0>        -0.1121
     20 C17         2.9618    4.3798   -2.3347 C.ar      1 <0>        -0.1167
     21 C18         2.7890    3.3069   -1.4683 C.ar      1 <0>        -0.0637
     22 C19         1.3913    2.7783   -1.2815 C.3       1 <0>        -0.0854
     23 C20         1.2817    1.9759    0.0141 C.3       1 <0>         0.1326
     24 H1          1.3150    2.6506    0.8695 H         1 <0>         0.0963
     25 C21        -0.0108    1.2012    0.0261 C.2       1 <0>         0.5561
     26 O3         -0.5486    0.9027   -1.0192 O.2       1 <0>        -0.5248
     27 N2         -0.5720    0.8448    1.1985 N.am      1 <0>        -0.6142
     28 C22        -0.0829    1.2227    2.5325 C.3       1 <0>         0.1010
     29 C23        -1.0227    0.5691    3.5673 C.3       1 <0>        -0.1311
     30 C24        -1.6466   -0.6082    2.7722 C.3       1 <0>        -0.1323
     31 C25        -1.7742    0.0062    1.3559 C.3       1 <0>         0.1142
     32 Cl1         7.7446   -9.1406    0.8884 Cl        1 <0>        -0.0695
     33 H2          2.6204   -7.7423   -0.9265 H         1 <0>         0.0727
     34 H3          2.6129   -8.6015    0.6324 H         1 <0>         0.0685
     35 H4          2.1690   -6.8792    0.5633 H         1 <0>         0.0743
     36 H5          4.9334   -9.2935    0.4634 H         1 <0>         0.1404
     37 H6          7.9405   -6.2997    0.9128 H         1 <0>         0.1359
     38 H7          6.2372   -4.5436    0.6435 H         1 <0>         0.1367
     39 H8          4.8553   -3.4270   -0.4570 H         1 <0>         0.0651
     40 H9          4.5891   -3.4243    1.3029 H         1 <0>         0.0649
     41 H10         2.2045   -2.8482    0.9413 H         1 <0>         0.0835
     42 H11         2.4708   -2.8509   -0.8186 H         1 <0>         0.0845
     43 H12         4.1411   -1.0354   -0.5687 H         1 <0>         0.0993
     44 H13         3.8749   -1.0327    1.1912 H         1 <0>         0.1000
     45 H14         4.5059    0.8675   -0.0907 H         1 <0>         0.0997
     46 H15         3.9375    1.9951    1.1632 H         1 <0>         0.0865
     47 H16         6.0031    2.8740   -0.5542 H         1 <0>         0.1253
     48 H17         6.3005    4.7669   -2.0934 H         1 <0>         0.1257
     49 H18         4.3416    5.7401   -3.2330 H         1 <0>         0.1250
     50 H19         2.1056    4.8055   -2.8369 H         1 <0>         0.1244
     51 H20         1.1355    2.1356   -2.1239 H         1 <0>         0.0998
     52 H21         0.6941    3.6154   -1.2448 H         1 <0>         0.0897
     53 H22         0.9350    0.8582    2.6711 H         1 <0>         0.0608
     54 H23        -0.1091    2.3067    2.6436 H         1 <0>         0.0653
     55 H24        -1.7940    1.2687    3.8893 H         1 <0>         0.0781
     56 H25        -0.4549    0.1996    4.4213 H         1 <0>         0.0812
     57 H26        -2.6249   -0.8747    3.1721 H         1 <0>         0.0838
     58 H27        -0.9808   -1.4712    2.7651 H         1 <0>         0.0756
     59 H28        -2.6744    0.6170    1.2870 H         1 <0>         0.0634
     60 H29        -1.7897   -0.7801    0.6012 H         1 <0>         0.0797
@<TRIPOS>BOND
     1    1    2 1
     2    1   33 1
     3    1   34 1
     4    1   35 1
     5    2    7 ar
     6    2    3 ar
     7    3    4 ar
     8    3   36 1
     9    4    5 ar
    10    4   32 1
    11    5    6 ar
    12    5   37 1
    13    6    7 ar
    14    6   38 1
    15    7    8 1
    16    8    9 1
    17    9   10 1
    18    9   39 1
    19    9   40 1
    20   10   11 1
    21   10   41 1
    22   10   42 1
    23   11   12 1
    24   11   43 1
    25   11   44 1
    26   12   13 2
    27   12   14 am
    28   14   23 1
    29   14   15 1
    30   15   16 1
    31   15   45 1
    32   15   46 1
    33   16   21 ar
    34   16   17 ar
    35   17   18 ar
    36   17   47 1
    37   18   19 ar
    38   18   48 1
    39   19   20 ar
    40   19   49 1
    41   20   21 ar
    42   20   50 1
    43   21   22 1
    44   22   23 1
    45   22   51 1
    46   22   52 1
    47   23   24 1
    48   23   25 1
    49   25   26 2
    50   25   27 am
    51   27   31 1
    52   27   28 1
    53   28   29 1
    54   28   53 1
    55   28   54 1
    56   29   30 1
    57   29   55 1
    58   29   56 1
    59   30   31 1
    60   30   57 1
    61   30   58 1
    62   31   59 1
    63   31   60 1
@<TRIPOS>MOLECULE
ZINC13491618
   40    42     0     0     0
SMALL
USER_CHARGES
phenyl-[(2S)-2-(pyrrolidine-1-carbonyl)pyrrolidin-1-yl]methanone
@<TRIPOS>ATOM
      1 C1          3.7034   -2.0862    0.0903 C.ar      1 <0>        -0.1024
      2 C2          3.5675   -0.9560   -0.6963 C.ar      1 <0>        -0.1190
      3 C3          2.3680   -0.2753   -0.7297 C.ar      1 <0>        -0.0559
      4 C4          1.2903   -0.7289    0.0326 C.ar      1 <0>        -0.1028
      5 C5          1.4359   -1.8663    0.8283 C.ar      1 <0>        -0.1077
      6 C6          2.6390   -2.5410    0.8483 C.ar      1 <0>        -0.1212
      7 C7          0.0021   -0.0041    0.0020 C.2       1 <0>         0.5897
      8 O1         -0.0139    1.2099    0.0620 O.2       1 <0>        -0.5279
      9 N1         -1.1546   -0.6893   -0.0924 N.am      1 <0>        -0.5988
     10 C8         -2.5003   -0.0947   -0.1868 C.3       1 <0>         0.1055
     11 C9         -3.3637   -1.1813   -0.8799 C.3       1 <0>        -0.1335
     12 C10        -2.7854   -2.4793   -0.2571 C.3       1 <0>        -0.1287
     13 C11        -1.2839   -2.1537   -0.1118 C.3       1 <0>         0.1127
     14 H1         -0.9023   -2.5720    0.8197 H         1 <0>         0.1044
     15 C12        -0.5180   -2.7204   -1.2794 C.2       1 <0>         0.5201
     16 O2          0.0814   -1.9787   -2.0288 O.2       1 <0>        -0.5141
     17 N2         -0.4992   -4.0513   -1.4909 N.am      1 <0>        -0.6171
     18 C13        -1.1734   -5.0604   -0.6611 C.3       1 <0>         0.0914
     19 C14        -0.8532   -6.4421   -1.2692 C.3       1 <0>        -0.1323
     20 C15         0.4504   -6.1747   -2.0668 C.3       1 <0>        -0.1339
     21 C16         0.2062   -4.7369   -2.5890 C.3       1 <0>         0.1063
     22 H2          4.6446   -2.6154    0.1129 H         1 <0>         0.1255
     23 H3          4.4022   -0.6061   -1.2856 H         1 <0>         0.1287
     24 H4          2.2632    0.6067   -1.3440 H         1 <0>         0.1278
     25 H5          0.6071   -2.2200    1.4236 H         1 <0>         0.1210
     26 H6          2.7516   -3.4239    1.4601 H         1 <0>         0.1254
     27 H7         -2.8888    0.1244    0.8078 H         1 <0>         0.0762
     28 H8         -2.4732    0.8111   -0.7924 H         1 <0>         0.0843
     29 H9         -3.2201   -1.1687   -1.9604 H         1 <0>         0.0788
     30 H10        -4.4169   -1.0617   -0.6260 H         1 <0>         0.0936
     31 H11        -2.9332   -3.3271   -0.9260 H         1 <0>         0.0914
     32 H12        -3.2341   -2.6726    0.7173 H         1 <0>         0.0937
     33 H13        -0.8007   -5.0082    0.3619 H         1 <0>         0.0704
     34 H14        -2.2502   -4.8921   -0.6746 H         1 <0>         0.0747
     35 H15        -1.6522   -6.7692   -1.9345 H         1 <0>         0.0790
     36 H16        -0.6810   -7.1787   -0.4844 H         1 <0>         0.0849
     37 H17         0.5542   -6.8781   -2.8930 H         1 <0>         0.0861
     38 H18         1.3228   -6.2105   -1.4142 H         1 <0>         0.0771
     39 H19        -0.4156   -4.7589   -3.4840 H         1 <0>         0.0681
     40 H20         1.1542   -4.2415   -2.7987 H         1 <0>         0.0786
@<TRIPOS>BOND
     1    1    6 ar
     2    1    2 ar
     3    1   22 1
     4    2    3 ar
     5    2   23 1
     6    3    4 ar
     7    3   24 1
     8    4    5 ar
     9    4    7 1
    10    5    6 ar
    11    5   25 1
    12    6   26 1
    13    7    8 2
    14    7    9 am
    15    9   13 1
    16    9   10 1
    17   10   11 1
    18   10   27 1
    19   10   28 1
    20   11   12 1
    21   11   29 1
    22   11   30 1
    23   12   13 1
    24   12   31 1
    25   12   32 1
    26   13   14 1
    27   13   15 1
    28   15   16 2
    29   15   17 am
    30   17   21 1
    31   17   18 1
    32   18   19 1
    33   18   33 1
    34   18   34 1
    35   19   20 1
    36   19   35 1
    37   19   36 1
    38   20   21 1
    39   20   37 1
    40   20   38 1
    41   21   39 1
    42   21   40 1
