@<TRIPOS>MOLECULE
ZINC13493818
   40    42     0     0     0
SMALL
USER_CHARGES
3,5-dichloro-N-[3-[(3,5-dichlorobenzoyl)amino]phenyl]benzamide
@<TRIPOS>ATOM
      1 C1          0.0343    9.4127    0.2267 C.ar      1 <0>        -0.0793
      2 C2         -1.1390   10.1320    0.3481 C.ar      1 <0>        -0.1513
      3 C3         -2.3624    9.4734    0.3499 C.ar      1 <0>         0.1591
      4 C4         -2.4050    8.0916    0.2301 C.ar      1 <0>        -0.1419
      5 C5         -1.2247    7.3721    0.1088 C.ar      1 <0>         0.1624
      6 C6         -0.0043    8.0364    0.1130 C.ar      1 <0>        -0.1287
      7 N1         -1.2632    5.9794   -0.0117 N.am      1 <0>        -0.6654
      8 C7         -0.3398    5.3418   -0.7583 C.2       1 <0>         0.5654
      9 O1          0.4695    5.9818   -1.4011 O.2       1 <0>        -0.5030
     10 C8         -0.3113    3.8644   -0.7956 C.ar      1 <0>        -0.1112
     11 C9          0.6437    3.2012   -1.5678 C.ar      1 <0>        -0.0438
     12 C10         0.6650    1.8209   -1.5989 C.ar      1 <0>        -0.0312
     13 C11        -0.2587    1.0948   -0.8665 C.ar      1 <0>        -0.0736
     14 C12        -1.2120    1.7470   -0.1031 C.ar      1 <0>        -0.0305
     15 C13        -1.2396    3.1268   -0.0590 C.ar      1 <0>        -0.0738
     16 Cl1        -2.3709    0.8279    0.8058 Cl        1 <0>        -0.0421
     17 Cl2         1.8520    0.9943   -2.5588 Cl        1 <0>        -0.0403
     18 N2         -3.5496   10.2023    0.4728 N.am      1 <0>        -0.6652
     19 C14        -4.5870    9.6890    1.1634 C.2       1 <0>         0.5658
     20 O2         -4.5220    8.5594    1.6077 O.2       1 <0>        -0.5062
     21 C15        -5.8038   10.4998    1.3805 C.ar      1 <0>        -0.1115
     22 C16        -5.8791   11.7992    0.8765 C.ar      1 <0>        -0.0741
     23 C17        -7.0201   12.5501    1.0788 C.ar      1 <0>        -0.0306
     24 C18        -8.0843   12.0199    1.7882 C.ar      1 <0>        -0.0735
     25 C19        -8.0135   10.7335    2.2951 C.ar      1 <0>        -0.0310
     26 C20        -6.8798    9.9711    2.0952 C.ar      1 <0>        -0.0439
     27 Cl3        -9.3531   10.0775    3.1834 Cl        1 <0>        -0.0398
     28 Cl4        -7.1181   14.1643    0.4476 Cl        1 <0>        -0.0418
     29 H1          0.9840    9.9270    0.2256 H         1 <0>         0.1344
     30 H2         -1.1052   11.2075    0.4413 H         1 <0>         0.1299
     31 H3         -3.3546    7.5773    0.2316 H         1 <0>         0.1439
     32 H4          0.9149    7.4766    0.0227 H         1 <0>         0.1375
     33 H5         -1.9544    5.4722    0.4421 H         1 <0>         0.4129
     34 H6          1.3647    3.7665   -2.1396 H         1 <0>         0.1571
     35 H7         -0.2383    0.0154   -0.8943 H         1 <0>         0.1530
     36 H8         -1.9808    3.6344    0.5404 H         1 <0>         0.1446
     37 H9         -3.6264   11.0772    0.0611 H         1 <0>         0.4132
     38 H10        -5.0481   12.2152    0.3262 H         1 <0>         0.1445
     39 H11        -8.9732   12.6124    1.9472 H         1 <0>         0.1531
     40 H12        -6.8258    8.9676    2.4908 H         1 <0>         0.1568
@<TRIPOS>BOND
     1    1    6 ar
     2    1    2 ar
     3    1   29 1
     4    2    3 ar
     5    2   30 1
     6    3    4 ar
     7    3   18 1
     8    4    5 ar
     9    4   31 1
    10    5    6 ar
    11    5    7 1
    12    6   32 1
    13    7    8 am
    14    7   33 1
    15    8    9 2
    16    8   10 1
    17   10   15 ar
    18   10   11 ar
    19   11   12 ar
    20   11   34 1
    21   12   13 ar
    22   12   17 1
    23   13   14 ar
    24   13   35 1
    25   14   15 ar
    26   14   16 1
    27   15   36 1
    28   18   19 am
    29   18   37 1
    30   19   20 2
    31   19   21 1
    32   21   26 ar
    33   21   22 ar
    34   22   23 ar
    35   22   38 1
    36   23   24 ar
    37   23   28 1
    38   24   25 ar
    39   24   39 1
    40   25   26 ar
    41   25   27 1
    42   26   40 1
@<TRIPOS>MOLECULE
ZINC00641085
   60    62     0     0     0
SMALL
USER_CHARGES
3-[2,4-dibromo-5-[(4-dimethylaminophenyl)carbamoylamino]phenyl]-1-(4-dimethylaminophenyl)-urea
@<TRIPOS>ATOM
      1 C1          1.2550   -2.7211   -4.5069 C.3       1 <0>         0.0962
      2 N1          2.1994   -1.6303   -4.7608 N.pl3     1 <0>        -0.6397
      3 C2          3.3123   -1.8271   -5.6929 C.3       1 <0>         0.0925
      4 C3          2.0384   -0.4006   -4.1131 C.ar      1 <0>         0.2039
      5 C4          0.9833   -0.2140   -3.2294 C.ar      1 <0>        -0.1778
      6 C5          0.8249    0.9994   -2.5900 C.ar      1 <0>        -0.0914
      7 C6          1.7202    2.0330   -2.8304 C.ar      1 <0>         0.0973
      8 C7          2.7751    1.8467   -3.7137 C.ar      1 <0>        -0.0644
      9 C8          2.9339    0.6334   -4.3533 C.ar      1 <0>        -0.1791
     10 N2          1.5592    3.2650   -2.1810 N.am      1 <0>        -0.6740
     11 C9          2.6412    3.9731   -1.8014 C.2       1 <0>         0.7053
     12 O1          3.7555    3.5860   -2.0967 O.2       1 <0>        -0.5443
     13 N3          2.4883    5.1103   -1.0944 N.am      1 <0>        -0.6781
     14 C10         3.6043    5.8958   -0.7819 C.ar      1 <0>         0.2330
     15 C11         4.8375    5.2968   -0.5696 C.ar      1 <0>        -0.1301
     16 C12         5.9413    6.0781   -0.2600 C.ar      1 <0>         0.2331
     17 C13         5.8091    7.4581   -0.1634 C.ar      1 <0>        -0.1444
     18 C14         4.5792    8.0524   -0.3754 C.ar      1 <0>        -0.0170
     19 C15         3.4790    7.2768   -0.6896 C.ar      1 <0>        -0.1436
     20 Br1         1.8001    8.0949   -0.9865 Br        1 <0>        -0.0332
     21 Br2         7.3133    8.5240    0.2578 Br        1 <0>        -0.0331
     22 N4          7.1874    5.4768   -0.0456 N.am      1 <0>        -0.6766
     23 C16         7.2551    4.2156    0.4246 C.2       1 <0>         0.7051
     24 O2          6.2367    3.5703    0.5830 O.2       1 <0>        -0.5436
     25 N5          8.4515    3.6696    0.7194 N.am      1 <0>        -0.6737
     26 C17         8.5300    2.3294    1.1229 C.ar      1 <0>         0.0966
     27 C18         9.6073    1.5476    0.7281 C.ar      1 <0>        -0.0907
     28 C19         9.6878    0.2291    1.1302 C.ar      1 <0>        -0.1780
     29 C20         8.6854   -0.3180    1.9206 C.ar      1 <0>         0.2045
     30 C21         7.6050    0.4626    2.3107 C.ar      1 <0>        -0.1792
     31 C22         7.5276    1.7824    1.9127 C.ar      1 <0>        -0.0636
     32 N6          8.7643   -1.6554    2.3242 N.pl3     1 <0>        -0.6396
     33 C23         7.7071   -2.2324    3.1583 C.3       1 <0>         0.0924
     34 C24         9.9040   -2.4788    1.9126 C.3       1 <0>         0.0961
     35 H1          0.2505   -2.4049   -4.7882 H         1 <0>         0.0535
     36 H2          1.5398   -3.5928   -5.0961 H         1 <0>         0.0724
     37 H3          1.2720   -2.9773   -3.4476 H         1 <0>         0.0534
     38 H4          4.1781   -2.2063   -5.1501 H         1 <0>         0.0477
     39 H5          3.0214   -2.5448   -6.4599 H         1 <0>         0.0662
     40 H6          3.5656   -0.8764   -6.1622 H         1 <0>         0.0686
     41 H7          0.2866   -1.0178   -3.0427 H         1 <0>         0.1249
     42 H8          0.0019    1.1461   -1.9062 H         1 <0>         0.1244
     43 H9          3.4714    2.6508   -3.9005 H         1 <0>         0.1389
     44 H10         3.7546    0.4883   -5.0402 H         1 <0>         0.1250
     45 H11         0.6690    3.6077   -2.0050 H         1 <0>         0.4065
     46 H12         1.6049    5.3846   -0.8020 H         1 <0>         0.4126
     47 H13         4.9379    4.2241   -0.6448 H         1 <0>         0.1986
     48 H14         4.4787    9.1251   -0.2999 H         1 <0>         0.1516
     49 H15         8.0020    5.9680   -0.2356 H         1 <0>         0.4128
     50 H16         9.2582    4.2039    0.6522 H         1 <0>         0.4067
     51 H17        10.3846    1.9719    0.1099 H         1 <0>         0.1246
     52 H18        10.5280   -0.3777    0.8268 H         1 <0>         0.1251
     53 H19         6.8253    0.0372    2.9250 H         1 <0>         0.1251
     54 H20         6.6875    2.3895    2.2160 H         1 <0>         0.1381
     55 H21         6.9339   -2.6605    2.5204 H         1 <0>         0.0478
     56 H22         8.1291   -3.0128    3.7915 H         1 <0>         0.0663
     57 H23         7.2717   -1.4530    3.7837 H         1 <0>         0.0686
     58 H24        10.8265   -2.0357    2.2877 H         1 <0>         0.0536
     59 H25         9.7919   -3.4837    2.3195 H         1 <0>         0.0725
     60 H26         9.9414   -2.5294    0.8245 H         1 <0>         0.0535
@<TRIPOS>BOND
     1    1    2 1
     2    1   35 1
     3    1   36 1
     4    1   37 1
     5    2    3 1
     6    2    4 1
     7    3   38 1
     8    3   39 1
     9    3   40 1
    10    4    9 ar
    11    4    5 ar
    12    5    6 ar
    13    5   41 1
    14    6    7 ar
    15    6   42 1
    16    7    8 ar
    17    7   10 1
    18    8    9 ar
    19    8   43 1
    20    9   44 1
    21   10   11 am
    22   10   45 1
    23   11   12 2
    24   11   13 am
    25   13   14 1
    26   13   46 1
    27   14   19 ar
    28   14   15 ar
    29   15   16 ar
    30   15   47 1
    31   16   17 ar
    32   16   22 1
    33   17   18 ar
    34   17   21 1
    35   18   19 ar
    36   18   48 1
    37   19   20 1
    38   22   23 am
    39   22   49 1
    40   23   24 2
    41   23   25 am
    42   25   26 1
    43   25   50 1
    44   26   31 ar
    45   26   27 ar
    46   27   28 ar
    47   27   51 1
    48   28   29 ar
    49   28   52 1
    50   29   30 ar
    51   29   32 1
    52   30   31 ar
    53   30   53 1
    54   31   54 1
    55   32   33 1
    56   32   34 1
    57   33   55 1
    58   33   56 1
    59   33   57 1
    60   34   58 1
    61   34   59 1
    62   34   60 1
