@<TRIPOS>MOLECULE
ZINC03872447
   21    22     0     0     0
SMALL
USER_CHARGES

@<TRIPOS>ATOM
      1 C1         -0.0191    1.5540    0.0106 C.3       1 <0>        -0.1492
      2 C2          1.4876    1.9176   -0.0018 C.3       1 <0>        -0.1469
      3 C3          2.1793    0.5214   -0.0159 C.3       1 <0>         0.0822
      4 H1          3.2020    0.5103   -0.3929 H         1 <0>         0.1076
      5 C4          1.9915   -0.0458    1.4232 C.3       1 <0>        -0.1603
      6 H2          2.2212    0.7136    2.1706 H         1 <0>         0.0501
      7 C5          0.4851   -0.4095    1.4547 C.3       1 <0>        -0.1591
      8 H3         -0.0358    0.1687    2.2179 H         1 <0>         0.0511
      9 C6          0.0021   -0.0041    0.0020 C.3       1 <0>         0.0855
     10 H4         -0.9132   -0.4819   -0.3473 H         1 <0>         0.1195
     11 O1          1.2117   -0.2691   -0.7815 O.3       1 <0>        -0.3535
     12 C7          0.2973   -1.8867    1.6861 C.2       1 <0>         0.5163
     13 O2          0.7059   -2.3996    2.7140 O.co2     1 <0>        -0.6863
     14 O3         -0.2634   -2.5690    0.8455 O.co2     1 <0>        -0.7119
     15 C8          2.8449   -1.2706    1.6298 C.2       1 <0>         0.5219
     16 O4          3.4209   -1.4404    2.6909 O.co2     1 <0>        -0.7145
     17 O5          2.9593   -2.0918    0.7359 O.co2     1 <0>        -0.6879
     18 H5         -0.4993    1.9287    0.9145 H         1 <0>         0.0622
     19 H6         -0.5164    1.9383   -0.8799 H         1 <0>         0.0550
     20 H7          1.7410    2.4831   -0.8986 H         1 <0>         0.0550
     21 H8          1.7582    2.4735    0.8959 H         1 <0>         0.0631
@<TRIPOS>BOND
     1    1    9 1
     2    1    2 1
     3    1   18 1
     4    1   19 1
     5    2    3 1
     6    2   20 1
     7    2   21 1
     8    3    4 1
     9    3   11 1
    10    3    5 1
    11    5    6 1
    12    5    7 1
    13    5   15 1
    14    7    8 1
    15    7    9 1
    16    7   12 1
    17    9   10 1
    18    9   11 1
    19   12   13 2
    20   12   14 1
    21   15   16 2
    22   15   17 1
@<TRIPOS>MOLECULE
ZINC17611186
   26    28     0     0     0
SMALL
USER_CHARGES

@<TRIPOS>ATOM
      1 C1          0.0599    1.5249   -0.0459 C.3       1 <0>        -0.1274
      2 C2          0.0459   -0.0049   -0.0290 C.3       1 <0>        -0.1448
      3 C3          0.7228   -0.6541   -1.2717 C.3       1 <0>         0.0842
      4 H1          0.1207   -0.6597   -2.1803 H         1 <0>         0.1451
      5 C4          2.1118    0.0404   -1.3974 C.3       1 <0>        -0.1485
      6 C5          2.9107   -0.5750   -0.2204 C.3       1 <0>        -0.1473
      7 C6          1.8766   -1.5426    0.4292 C.3       1 <0>         0.0839
      8 H2          2.3034   -2.3476    1.0274 H         1 <0>         0.1454
      9 C7          0.8402   -0.6387    1.1595 C.3       1 <0>        -0.1447
     10 C8         -0.2155   -1.4984    1.8319 C.2       1 <0>         0.5144
     11 O1         -0.1865   -1.9208    2.9635 O.2       1 <0>        -0.3989
     12 O2         -1.1916   -1.7000    0.9236 O.3       1 <0>        -0.3265
     13 C9         -1.3376   -0.6042    0.1514 C.2       1 <0>         0.5119
     14 O3         -2.3712   -0.1805   -0.3089 O.2       1 <0>        -0.3994
     15 C10         1.5108    0.3834    2.0797 C.3       1 <0>        -0.1285
     16 O4          1.0883   -1.9717   -0.7465 O.3       1 <0>        -0.3597
     17 H3          1.0898    1.8793   -0.0021 H         1 <0>         0.0862
     18 H4         -0.4087    1.8824   -0.9628 H         1 <0>         0.0818
     19 H5         -0.4913    1.9028    0.8152 H         1 <0>         0.0714
     20 H6          2.5802   -0.2027   -2.3511 H         1 <0>         0.0880
     21 H7          2.0163    1.1195   -1.2768 H         1 <0>         0.0921
     22 H8          3.7769   -1.1254   -0.5876 H         1 <0>         0.0887
     23 H9          3.2138    0.1974    0.4864 H         1 <0>         0.0929
     24 H10         0.7464    0.9514    2.6099 H         1 <0>         0.0711
     25 H11         2.1428   -0.1359    2.8001 H         1 <0>         0.0817
     26 H12         2.1209    1.0628    1.4845 H         1 <0>         0.0869
@<TRIPOS>BOND
     1    1    2 1
     2    1   17 1
     3    1   18 1
     4    1   19 1
     5    2    9 1
     6    2   13 1
     7    2    3 1
     8    3    4 1
     9    3   16 1
    10    3    5 1
    11    5    6 1
    12    5   20 1
    13    5   21 1
    14    6    7 1
    15    6   22 1
    16    6   23 1
    17    7    8 1
    18    7    9 1
    19    7   16 1
    20    9   10 1
    21    9   15 1
    22   10   11 2
    23   10   12 1
    24   12   13 1
    25   13   14 2
    26   15   24 1
    27   15   25 1
    28   15   26 1
