@<TRIPOS>MOLECULE
ZINC04428529
   53    56     0     0     0
SMALL
USER_CHARGES

@<TRIPOS>ATOM
      1 C1          0.4282    0.7651    1.2384 C.3       1 <0>        -0.2080
      2 C2          0.0050   -0.0027    0.0127 C.2       1 <0>         0.3647
      3 O1          0.7040   -0.0010   -0.9721 O.2       1 <0>        -0.4542
      4 C3         -1.2905   -0.7727    0.0158 C.3       1 <0>        -0.1325
      5 H1         -2.0415   -0.2446    0.6034 H         1 <0>         0.0972
      6 C4         -1.7935   -0.9827   -1.4341 C.3       1 <0>        -0.1186
      7 C5         -1.9305   -2.5169   -1.6323 C.3       1 <0>        -0.1151
      8 C6         -2.1068   -3.0336   -0.2000 C.3       1 <0>        -0.0796
      9 H2         -3.1156   -2.8264    0.1569 H         1 <0>         0.0777
     10 C7         -1.0708   -2.1742    0.5759 C.3       1 <0>        -0.0487
     11 C8         -1.3489   -2.3630    2.0549 C.3       1 <0>        -0.1047
     12 C9         -1.0643   -3.8367    2.3850 C.3       1 <0>        -0.1222
     13 C10        -1.9046   -4.7802    1.5293 C.3       1 <0>        -0.0680
     14 H3         -2.9551   -4.6575    1.7928 H         1 <0>         0.0704
     15 C11        -1.7585   -4.4942    0.0214 C.3       1 <0>        -0.0776
     16 H4         -0.7305   -4.6831   -0.2877 H         1 <0>         0.0863
     17 C12        -2.7266   -5.3822   -0.7660 C.3       1 <0>        -0.1118
     18 C13        -2.3186   -6.8466   -0.5915 C.3       1 <0>        -0.0977
     19 C14        -2.2642   -7.1658    0.8913 C.2       1 <0>        -0.0206
     20 C15        -2.8820   -8.2703    1.3099 C.2       1 <0>        -0.2434
     21 H5         -3.4070   -8.8958    0.6032 H         1 <0>         0.1337
     22 C16        -2.8495   -8.6362    2.7300 C.2       1 <0>         0.3882
     23 O2         -3.6756   -9.3796    3.2168 O.2       1 <0>        -0.4580
     24 C17        -1.7290   -8.0371    3.5574 C.3       1 <0>        -0.1668
     25 H6         -1.9153   -8.2141    4.6167 H         1 <0>         0.0925
     26 H7         -0.7768   -8.4825    3.2693 H         1 <0>         0.0997
     27 C18        -1.7074   -6.5351    3.2776 C.3       1 <0>        -0.1069
     28 C19        -1.4839   -6.2270    1.8163 C.3       1 <0>        -0.0241
     29 C20         0.0121   -6.3503    1.5204 C.3       1 <0>        -0.1492
     30 C21         0.3461   -2.6481    0.2465 C.3       1 <0>        -0.1572
     31 H8          1.3837    1.2542    1.0489 H         1 <0>         0.0809
     32 H9         -0.3247    1.5173    1.4738 H         1 <0>         0.0918
     33 H10         0.5316    0.0791    2.0791 H         1 <0>         0.0918
     34 H11        -2.7617   -0.5002   -1.5678 H         1 <0>         0.0675
     35 H12        -1.0717   -0.5769   -2.1430 H         1 <0>         0.0790
     36 H13        -2.8065   -2.7509   -2.2372 H         1 <0>         0.0676
     37 H14        -1.0279   -2.9297   -2.0829 H         1 <0>         0.0698
     38 H15        -0.6944   -1.7180    2.6411 H         1 <0>         0.0661
     39 H16        -2.3917   -2.1291    2.2695 H         1 <0>         0.0682
     40 H17        -0.0085   -4.0427    2.2091 H         1 <0>         0.0749
     41 H18        -1.2894   -4.0152    3.4365 H         1 <0>         0.0667
     42 H19        -3.7398   -5.2390   -0.3905 H         1 <0>         0.0659
     43 H20        -2.6874   -5.1165   -1.8224 H         1 <0>         0.0725
     44 H21        -3.0518   -7.4905   -1.0771 H         1 <0>         0.0771
     45 H22        -1.3365   -7.0077   -1.0361 H         1 <0>         0.0840
     46 H23        -2.6504   -6.0986    3.6068 H         1 <0>         0.0701
     47 H24        -0.8915   -6.0806    3.8396 H         1 <0>         0.0811
     48 H25         0.5667   -5.6628    2.1591 H         1 <0>         0.0702
     49 H26         0.3383   -7.3717    1.7166 H         1 <0>         0.0587
     50 H27         0.1972   -6.1043    0.4748 H         1 <0>         0.0638
     51 H28         1.0689   -2.0310    0.7800 H         1 <0>         0.0510
     52 H29         0.4614   -3.6883    0.5512 H         1 <0>         0.0714
     53 H30         0.5175   -2.5628   -0.8266 H         1 <0>         0.0644
@<TRIPOS>BOND
     1    1    2 1
     2    1   31 1
     3    1   32 1
     4    1   33 1
     5    2    3 2
     6    2    4 1
     7    4    5 1
     8    4   10 1
     9    4    6 1
    10    6    7 1
    11    6   34 1
    12    6   35 1
    13    7    8 1
    14    7   36 1
    15    7   37 1
    16    8    9 1
    17    8   15 1
    18    8   10 1
    19   10   11 1
    20   10   30 1
    21   11   12 1
    22   11   38 1
    23   11   39 1
    24   12   13 1
    25   12   40 1
    26   12   41 1
    27   13   14 1
    28   13   28 1
    29   13   15 1
    30   15   16 1
    31   15   17 1
    32   17   18 1
    33   17   42 1
    34   17   43 1
    35   18   19 1
    36   18   44 1
    37   18   45 1
    38   19   28 1
    39   19   20 2
    40   20   21 1
    41   20   22 1
    42   22   23 2
    43   22   24 1
    44   24   25 1
    45   24   26 1
    46   24   27 1
    47   27   28 1
    48   27   46 1
    49   27   47 1
    50   28   29 1
    51   29   48 1
    52   29   49 1
    53   29   50 1
    54   30   51 1
    55   30   52 1
    56   30   53 1
@<TRIPOS>MOLECULE
ZINC34022720
   41    43     0     0     0
SMALL
USER_CHARGES

@<TRIPOS>ATOM
      1 C1         -1.1990   -0.5328    0.7887 C.3       1 <0>        -0.1430
      2 C2          0.0021   -0.0041    0.0020 C.3       1 <0>        -0.0724
      3 C3         -0.1066    1.5160   -0.1341 C.3       1 <0>        -0.1598
      4 C4          1.2930   -0.3589    0.7426 C.3       1 <0>         0.0759
      5 O1          1.2755    0.2357    2.0420 O.3       1 <0>        -0.5672
      6 C5          0.0208   -0.6406   -1.3892 C.3       1 <0>         0.1737
      7 H1         -0.0721   -1.7205   -1.2743 H         1 <0>         0.0765
      8 C6          1.3439   -0.3435   -2.0293 C.3       1 <0>        -0.0982
      9 H2          2.0933   -1.0278   -1.6314 H         1 <0>         0.0972
     10 C7          1.8050    1.1064   -1.7744 C.3       1 <0>        -0.1233
     11 C8          2.6743    1.4246   -2.9730 C.2       1 <0>        -0.1581
     12 C9          2.4517    0.5828   -3.9483 C.2       1 <0>        -0.1669
     13 C10         1.3787   -0.4016   -3.5541 C.3       1 <0>        -0.0070
     14 H3          1.6581   -1.4006   -3.8889 H         1 <0>         0.0926
     15 C11         0.0900    0.0358   -4.1918 C.ar      1 <0>        -0.1472
     16 C12         0.0908    0.3184   -5.5504 C.ar      1 <0>         0.0000
     17 C13        -1.0655    0.7342   -6.1792 C.ar      1 <0>        -0.1095
     18 C14        -2.2367    0.8745   -5.4569 C.ar      1 <0>        -0.0074
     19 C15        -2.2478    0.5922   -4.1065 C.ar      1 <0>        -0.1967
     20 C16        -1.0837    0.1664   -3.4719 C.ar      1 <0>         0.2760
     21 N1         -1.1263   -0.1580   -2.1296 N.pl3     1 <0>        -0.7080
     22 N2         -1.0519    1.0309   -7.6291 N.pl3     1 <0>         0.0457
     23 O2         -0.0287    0.9091   -8.2615 O.2       1 <0>        -0.1749
     24 O3         -2.0639    1.3952   -8.1811 O.3       1 <0>        -0.1732
     25 H4         -2.1205   -0.1805    0.3252 H         1 <0>         0.0528
     26 H5         -1.1842   -1.6227    0.7853 H         1 <0>         0.0566
     27 H6         -1.1479   -0.1719    1.8159 H         1 <0>         0.0734
     28 H7         -0.5619    1.9297    0.7657 H         1 <0>         0.0597
     29 H8          0.8885    1.9410   -0.2661 H         1 <0>         0.0811
     30 H9         -0.7236    1.7602   -0.9987 H         1 <0>         0.0588
     31 H10         1.3704   -1.4418    0.8396 H         1 <0>         0.0465
     32 H11         2.1487    0.0178    0.1822 H         1 <0>         0.0618
     33 H12         2.0651    0.0521    2.5692 H         1 <0>         0.3823
     34 H13         0.9482    1.7790   -1.7335 H         1 <0>         0.1060
     35 H14         2.3851    1.1674   -0.8537 H         1 <0>         0.0839
     36 H15         3.3831    2.2383   -3.0164 H         1 <0>         0.1277
     37 H16         2.9560    0.6012   -4.9031 H         1 <0>         0.1321
     38 H17         1.0025    0.2127   -6.1196 H         1 <0>         0.1492
     39 H18        -3.1399    1.2044   -5.9486 H         1 <0>         0.1521
     40 H19        -3.1610    0.7018   -3.5405 H         1 <0>         0.1443
     41 H20        -1.9633   -0.0280   -1.6569 H         1 <0>         0.4068
@<TRIPOS>BOND
     1    1    2 1
     2    1   25 1
     3    1   26 1
     4    1   27 1
     5    2    3 1
     6    2    4 1
     7    2    6 1
     8    3   28 1
     9    3   29 1
    10    3   30 1
    11    4    5 1
    12    4   31 1
    13    4   32 1
    14    5   33 1
    15    6    7 1
    16    6   21 1
    17    6    8 1
    18    8    9 1
    19    8   13 1
    20    8   10 1
    21   10   11 1
    22   10   34 1
    23   10   35 1
    24   11   12 2
    25   11   36 1
    26   12   13 1
    27   12   37 1
    28   13   14 1
    29   13   15 1
    30   15   20 ar
    31   15   16 ar
    32   16   17 ar
    33   16   38 1
    34   17   18 ar
    35   17   22 1
    36   18   19 ar
    37   18   39 1
    38   19   20 ar
    39   19   40 1
    40   20   21 1
    41   21   41 1
    42   22   23 2
    43   22   24 1
@<TRIPOS>MOLECULE
ZINC03814360
   51    54     0     0     0
SMALL
USER_CHARGES

@<TRIPOS>ATOM
      1 C1         -0.0791    1.5267   -0.0241 C.3       1 <0>        -0.1536
      2 C2         -0.0620   -0.0032   -0.0340 C.3       1 <0>        -0.0506
      3 C3         -1.4996   -0.5307   -0.0608 C.3       1 <0>        -0.1074
      4 C4         -2.2727    0.0180    1.1418 C.3       1 <0>        -0.1722
      5 C5         -1.5107   -0.3367    2.3997 C.2       1 <0>         0.3611
      6 O1         -2.0584   -0.8912    3.3222 O.2       1 <0>        -0.4588
      7 C6         -0.0437    0.0225    2.4684 C.3       1 <0>        -0.1686
      8 C7          0.6550   -0.5142    1.2167 C.3       1 <0>        -0.0671
      9 H1          0.6353   -1.6039    1.2286 H         1 <0>         0.0748
     10 C8          2.1047   -0.0227    1.2198 C.3       1 <0>        -0.1157
     11 C9          2.8251   -0.5267   -0.0312 C.3       1 <0>        -0.1139
     12 C10         2.1153    0.0158   -1.2732 C.3       1 <0>        -0.0745
     13 H2          2.1230    1.1057   -1.2595 H         1 <0>         0.0857
     14 C11         0.6681   -0.4981   -1.2845 C.3       1 <0>        -0.0669
     15 H3          0.6802   -1.5880   -1.2755 H         1 <0>         0.0665
     16 C12        -0.0757   -0.0424   -2.5353 C.3       1 <0>        -0.1208
     17 C13         0.6746   -0.4510   -3.8142 C.3       1 <0>        -0.1028
     18 C14         2.0633    0.1522   -3.7349 C.3       1 <0>        -0.0579
     19 C15         2.7956   -0.4911   -2.5311 C.3       1 <0>        -0.0829
     20 H4          2.7257   -1.5774   -2.5882 H         1 <0>         0.0740
     21 C16         4.2385   -0.0216   -2.7472 C.3       1 <0>        -0.1123
     22 C17         4.4269   -0.1743   -4.2813 C.3       1 <0>        -0.1563
     23 C18         2.9990   -0.1352   -4.9046 C.3       1 <0>         0.1094
     24 H5          2.7384   -1.0847   -5.3722 H         1 <0>         0.0589
     25 O2          2.9342    0.9236   -5.8621 O.3       1 <0>        -0.5616
     26 C19         1.9594    1.6627   -3.5144 C.3       1 <0>        -0.1341
     27 H6          0.9444    1.9014   -0.0139 H         1 <0>         0.0641
     28 H7         -0.5902    1.8901   -0.9156 H         1 <0>         0.0611
     29 H8         -0.6037    1.8784    0.8642 H         1 <0>         0.0573
     30 H9         -1.9865   -0.2101   -0.9818 H         1 <0>         0.0807
     31 H10        -1.4873   -1.6197   -0.0178 H         1 <0>         0.0666
     32 H11        -2.3605    1.1013    1.0588 H         1 <0>         0.1007
     33 H12        -3.2658   -0.4300    1.1754 H         1 <0>         0.0872
     34 H13         0.0655    1.1062    2.5100 H         1 <0>         0.1009
     35 H14         0.4010   -0.4260    3.3568 H         1 <0>         0.0876
     36 H15         2.1179    1.0672    1.2312 H         1 <0>         0.0681
     37 H16         2.6132   -0.3995    2.1072 H         1 <0>         0.0638
     38 H17         3.8582   -0.1792   -0.0214 H         1 <0>         0.0647
     39 H18         2.8066   -1.6164   -0.0480 H         1 <0>         0.0614
     40 H19        -1.0679   -0.4936   -2.5445 H         1 <0>         0.0641
     41 H20        -0.1788    1.0425   -2.5135 H         1 <0>         0.0717
     42 H21         0.7449   -1.5372   -3.8719 H         1 <0>         0.0611
     43 H22         0.1524   -0.0653   -4.6898 H         1 <0>         0.0656
     44 H23         4.3545    1.0195   -2.4460 H         1 <0>         0.0703
     45 H24         4.9371   -0.6606   -2.2072 H         1 <0>         0.0656
     46 H25         5.0422    0.6392   -4.6655 H         1 <0>         0.0735
     47 H26         4.8913   -1.1342   -4.5074 H         1 <0>         0.0642
     48 H27         3.5088    0.7959   -6.6293 H         1 <0>         0.3748
     49 H28         1.3664    1.8595   -2.6213 H         1 <0>         0.0609
     50 H29         2.9579    2.0808   -3.3871 H         1 <0>         0.0533
     51 H30         1.4798    2.1237   -4.3779 H         1 <0>         0.0585
@<TRIPOS>BOND
     1    1    2 1
     2    1   27 1
     3    1   28 1
     4    1   29 1
     5    2    8 1
     6    2   14 1
     7    2    3 1
     8    3    4 1
     9    3   30 1
    10    3   31 1
    11    4    5 1
    12    4   32 1
    13    4   33 1
    14    5    6 2
    15    5    7 1
    16    7    8 1
    17    7   34 1
    18    7   35 1
    19    8    9 1
    20    8   10 1
    21   10   11 1
    22   10   36 1
    23   10   37 1
    24   11   12 1
    25   11   38 1
    26   11   39 1
    27   12   13 1
    28   12   19 1
    29   12   14 1
    30   14   15 1
    31   14   16 1
    32   16   17 1
    33   16   40 1
    34   16   41 1
    35   17   18 1
    36   17   42 1
    37   17   43 1
    38   18   23 1
    39   18   19 1
    40   18   26 1
    41   19   20 1
    42   19   21 1
    43   21   22 1
    44   21   44 1
    45   21   45 1
    46   22   23 1
    47   22   46 1
    48   22   47 1
    49   23   24 1
    50   23   25 1
    51   25   48 1
    52   26   49 1
    53   26   50 1
    54   26   51 1
@<TRIPOS>MOLECULE
ZINC00538564
   43    44     0     0     0
SMALL
USER_CHARGES

@<TRIPOS>ATOM
      1 C1         -0.0322    1.5192    0.0160 C.3       1 <0>        -0.1779
      2 C2          0.0002   -0.0104    0.0036 C.3       1 <0>         0.1420
      3 C3          0.7455   -0.5148    1.2410 C.3       1 <0>        -0.6421
      4 S1         -0.0184    0.1804    2.7322 S.o2      1 <0>         2.5137
      5 O1          0.1999    1.5835    2.7852 O.2       1 <0>        -0.9239
      6 O2         -1.3216   -0.3572    2.9106 O.2       1 <0>        -0.9142
      7 C4          0.9243   -0.4722    4.0702 C.ar      1 <0>        -0.6815
      8 C5          0.5593   -1.6720    4.6517 C.ar      1 <0>         0.0062
      9 C6          1.2981   -2.1851    5.7009 C.ar      1 <0>        -0.1741
     10 C7          2.4044   -1.4968    6.1695 C.ar      1 <0>         0.1596
     11 C8          2.7690   -0.2952    5.5863 C.ar      1 <0>        -0.1736
     12 C9          2.0317    0.2133    4.5338 C.ar      1 <0>         0.0076
     13 F1          3.1271   -1.9972    7.1954 F         1 <0>        -0.1262
     14 C10         0.7078   -0.4878   -1.2383 C.2       1 <0>         0.5031
     15 O3          1.8909   -0.7516   -1.1987 O.2       1 <0>        -0.4976
     16 N1          0.0259   -0.6217   -2.3931 N.am      1 <0>        -0.6619
     17 C11         0.6990   -0.9709   -3.5645 C.ar      1 <0>         0.1712
     18 C12         1.7763   -1.8495   -3.5101 C.ar      1 <0>        -0.0928
     19 C13         2.4429   -2.1963   -4.6638 C.ar      1 <0>        -0.0476
     20 C14         2.0360   -1.6643   -5.8909 C.ar      1 <0>         0.0129
     21 C15         0.9534   -0.7820   -5.9416 C.ar      1 <0>        -0.1193
     22 C16         0.2878   -0.4441   -4.7842 C.ar      1 <0>        -0.0947
     23 C17         0.5109   -0.2059   -7.2620 C.3       1 <0>         0.5059
     24 F2         -0.5824    0.6427   -7.0576 F         1 <0>        -0.1694
     25 F3          1.5637    0.5187   -7.8309 F         1 <0>        -0.1688
     26 F4          0.1405   -1.2443   -8.1232 F         1 <0>        -0.1690
     27 C18         2.7271   -2.0223   -7.0929 C.1       1 <0>         0.2298
     28 N2          3.2753   -2.3063   -8.0464 N.1       1 <0>        -0.3736
     29 O4         -1.3366   -0.5153    0.0141 O.3       1 <0>        -0.5355
     30 H1          0.9874    1.9043    0.0081 H         1 <0>         0.0978
     31 H2         -0.5632    1.8785   -0.8655 H         1 <0>         0.0902
     32 H3         -0.5440    1.8645    0.9143 H         1 <0>         0.0988
     33 H4          0.6922   -1.6028    1.2789 H         1 <0>         0.1462
     34 H5          1.7889   -0.2038    1.1885 H         1 <0>         0.1617
     35 H6         -0.3039   -2.2085    4.2862 H         1 <0>         0.1539
     36 H7          1.0126   -3.1223    6.1552 H         1 <0>         0.1495
     37 H8          3.6315    0.2427    5.9513 H         1 <0>         0.1498
     38 H9          2.3185    1.1484    4.0758 H         1 <0>         0.1549
     39 H10        -0.9329   -0.4753   -2.4099 H         1 <0>         0.4261
     40 H11         2.0903   -2.2598   -2.5617 H         1 <0>         0.1599
     41 H12         3.2793   -2.8781   -4.6208 H         1 <0>         0.1529
     42 H13        -0.5516    0.2343   -4.8232 H         1 <0>         0.1566
     43 H14        -1.3925   -1.4807    0.0071 H         1 <0>         0.3933
@<TRIPOS>BOND
     1    1    2 1
     2    1   30 1
     3    1   31 1
     4    1   32 1
     5    2    3 1
     6    2   14 1
     7    2   29 1
     8    3    4 1
     9    3   33 1
    10    3   34 1
    11    4    5 2
    12    4    6 2
    13    4    7 1
    14    7   12 ar
    15    7    8 ar
    16    8    9 ar
    17    8   35 1
    18    9   10 ar
    19    9   36 1
    20   10   11 ar
    21   10   13 1
    22   11   12 ar
    23   11   37 1
    24   12   38 1
    25   14   15 2
    26   14   16 am
    27   16   17 1
    28   16   39 1
    29   17   22 ar
    30   17   18 ar
    31   18   19 ar
    32   18   40 1
    33   19   20 ar
    34   19   41 1
    35   20   21 ar
    36   20   27 1
    37   21   22 ar
    38   21   23 1
    39   22   42 1
    40   23   24 1
    41   23   25 1
    42   23   26 1
    43   27   28 3
    44   29   43 1
@<TRIPOS>MOLECULE
ZINC00897408
   43    44     0     0     0
SMALL
USER_CHARGES

@<TRIPOS>ATOM
      1 C1         -0.0295    1.5317    0.0187 C.3       1 <0>        -0.1782
      2 C2         -0.0000    0.0020    0.0023 C.3       1 <0>         0.1414
      3 C3          0.7447   -0.5070    1.2381 C.3       1 <0>        -0.6415
      4 S1          2.3930    0.2476    1.3042 S.o2      1 <0>         2.5138
      5 O1          3.1950   -0.2340    0.2346 O.2       1 <0>        -0.9142
      6 O2          2.2833    1.6417    1.5566 O.2       1 <0>        -0.9241
      7 C4          3.1366   -0.4153    2.7576 C.ar      1 <0>        -0.6816
      8 C5          2.9811    0.2315    3.9695 C.ar      1 <0>         0.0075
      9 C6          3.5634   -0.2877    5.1102 C.ar      1 <0>        -0.1737
     10 C7          4.3028   -1.4562    5.0389 C.ar      1 <0>         0.1596
     11 C8          4.4578   -2.1031    3.8246 C.ar      1 <0>        -0.1740
     12 C9          3.8702   -1.5848    2.6862 C.ar      1 <0>         0.0064
     13 F1          4.8729   -1.9645    6.1533 F         1 <0>        -0.1262
     14 C10        -1.4108   -0.5278    0.0124 C.2       1 <0>         0.5030
     15 O3         -1.9347   -0.8376    1.0614 O.2       1 <0>        -0.4978
     16 N1         -2.0902   -0.6573   -1.1443 N.am      1 <0>        -0.6615
     17 C11        -3.3595   -1.2371   -1.1468 C.ar      1 <0>         0.1705
     18 C12        -4.2221   -1.0235   -0.0763 C.ar      1 <0>        -0.0923
     19 C13        -5.4751   -1.5939   -0.0753 C.ar      1 <0>        -0.0476
     20 C14        -5.8803   -2.3886   -1.1517 C.ar      1 <0>         0.0129
     21 C15        -5.0111   -2.6010   -2.2252 C.ar      1 <0>        -0.1198
     22 C16        -3.7613   -2.0225   -2.2220 C.ar      1 <0>        -0.0951
     23 C17        -5.4433   -3.4568   -3.3879 C.3       1 <0>         0.5058
     24 F2         -4.4107   -3.5200   -4.3297 F         1 <0>        -0.1695
     25 F3         -5.7393   -4.7463   -2.9331 F         1 <0>        -0.1691
     26 F4         -6.5812   -2.8986   -3.9803 F         1 <0>        -0.1688
     27 C18        -7.1826   -2.9840   -1.1540 C.1       1 <0>         0.2297
     28 N2         -8.2158   -3.4563   -1.1558 N.1       1 <0>        -0.3735
     29 O4          0.6697   -0.4489   -1.1767 O.3       1 <0>        -0.5352
     30 H1          0.9909    1.9149    0.0114 H         1 <0>         0.0988
     31 H2         -0.5601    1.8943   -0.8617 H         1 <0>         0.0900
     32 H3         -0.5404    1.8756    0.9181 H         1 <0>         0.0980
     33 H4          0.1862   -0.2389    2.1350 H         1 <0>         0.1615
     34 H5          0.8434   -1.5910    1.1820 H         1 <0>         0.1460
     35 H6          2.4046    1.1431    4.0248 H         1 <0>         0.1548
     36 H7          3.4421    0.2179    6.0568 H         1 <0>         0.1498
     37 H8          5.0346   -3.0144    3.7678 H         1 <0>         0.1496
     38 H9          3.9873   -2.0916    1.7397 H         1 <0>         0.1540
     39 H10        -1.6970   -0.3474   -1.9751 H         1 <0>         0.4262
     40 H11        -3.9082   -0.4097    0.7550 H         1 <0>         0.1609
     41 H12        -6.1441   -1.4279    0.7561 H         1 <0>         0.1532
     42 H13        -3.0908   -2.1826   -3.0533 H         1 <0>         0.1566
     43 H14         0.7258   -1.4112   -1.2536 H         1 <0>         0.3937
@<TRIPOS>BOND
     1    1    2 1
     2    1   30 1
     3    1   31 1
     4    1   32 1
     5    2    3 1
     6    2   14 1
     7    2   29 1
     8    3    4 1
     9    3   33 1
    10    3   34 1
    11    4    5 2
    12    4    6 2
    13    4    7 1
    14    7   12 ar
    15    7    8 ar
    16    8    9 ar
    17    8   35 1
    18    9   10 ar
    19    9   36 1
    20   10   11 ar
    21   10   13 1
    22   11   12 ar
    23   11   37 1
    24   12   38 1
    25   14   15 2
    26   14   16 am
    27   16   17 1
    28   16   39 1
    29   17   22 ar
    30   17   18 ar
    31   18   19 ar
    32   18   40 1
    33   19   20 ar
    34   19   41 1
    35   20   21 ar
    36   20   27 1
    37   21   22 ar
    38   21   23 1
    39   22   42 1
    40   23   24 1
    41   23   25 1
    42   23   26 1
    43   27   28 3
    44   29   43 1
