@<TRIPOS>MOLECULE
ZINC08660419
   67    71     0     0     0
SMALL
USER_CHARGES
11-(4-dimethylaminophenyl)-17-hydroxy-13-methyl-17-prop-1-ynyl-1,2,6,7,8,11,12,14,15,16-decahydrocyclopenta[a]phenanthren-3-one
@<TRIPOS>ATOM
      1 C1          0.7869    0.1155   -4.5240 C.3       1 <0>        -0.0462
      2 C2          0.5900    0.9727   -3.3436 C.1       1 <0>        -0.1645
      3 C3          0.4330    1.6563   -2.4022 C.1       1 <0>        -0.2108
      4 C4          0.2361    2.5134   -1.2218 C.3       1 <0>         0.2516
      5 C5          1.2880    3.6384   -1.2035 C.3       1 <0>        -0.1460
      6 C6          2.1300    3.4350    0.0772 C.3       1 <0>        -0.1158
      7 C7          1.9355    1.9425    0.4012 C.3       1 <0>        -0.0751
      8 H1          2.5427    1.3688   -0.2990 H         1 <0>         0.0756
      9 C8          0.4547    1.6914    0.0764 C.3       1 <0>        -0.0266
     10 C9         -0.4117    2.3256    1.1670 C.3       1 <0>        -0.0878
     11 C10        -0.1997    1.6805    2.5047 C.3       1 <0>        -0.0025
     12 H2         -0.8001    0.7718    2.5494 H         1 <0>         0.0872
     13 C11         1.2316    1.3258    2.7607 C.2       1 <0>        -0.0418
     14 C12         1.5404    0.7472    3.9335 C.2       1 <0>        -0.1294
     15 C13         0.4525    0.4472    4.9374 C.3       1 <0>        -0.0945
     16 C14         0.9498    0.8563    6.3279 C.3       1 <0>        -0.1505
     17 C15         2.3106    0.2641    6.5759 C.2       1 <0>         0.3859
     18 O1          2.6042   -0.0954    7.6983 O.2       1 <0>        -0.4758
     19 C16         3.2491    0.1171    5.5432 C.2       1 <0>        -0.2574
     20 C17         2.9152    0.3774    4.2526 C.2       1 <0>         0.0321
     21 C18         3.9597    0.2695    3.1733 C.3       1 <0>        -0.0979
     22 C19         3.3016    0.3825    1.7969 C.3       1 <0>        -0.1123
     23 C20         2.3424    1.5764    1.7924 C.3       1 <0>        -0.0429
     24 H3          2.9133    2.4186    2.1836 H         1 <0>         0.0813
     25 C21        -0.6667    2.6234    3.5835 C.ar      1 <0>        -0.1252
     26 C22        -1.9173    2.4583    4.1502 C.ar      1 <0>        -0.0698
     27 C23        -2.3460    3.3173    5.1430 C.ar      1 <0>        -0.1952
     28 C24        -1.5241    4.3549    5.5643 C.ar      1 <0>         0.2151
     29 C25        -0.2708    4.5213    4.9889 C.ar      1 <0>        -0.1951
     30 C26         0.1541    3.6553    4.0005 C.ar      1 <0>        -0.0584
     31 N1         -1.9567    5.2286    6.5644 N.pl3     1 <0>        -0.6386
     32 C27        -1.1430    6.3931    6.9220 C.3       1 <0>         0.0924
     33 C28        -3.2242    4.9804    7.2559 C.3       1 <0>         0.0888
     34 C29         0.1462    0.2052   -0.1159 C.3       1 <0>        -0.1349
     35 O2         -1.0793    3.0716   -1.2336 O.3       1 <0>        -0.5403
     36 H4          0.6311    0.7024   -5.4292 H         1 <0>         0.0815
     37 H5          1.8018   -0.2822   -4.5190 H         1 <0>         0.0822
     38 H6          0.0737   -0.7083   -4.4978 H         1 <0>         0.0820
     39 H7          0.7949    4.6101   -1.1758 H         1 <0>         0.0815
     40 H8          1.9256    3.5677   -2.0847 H         1 <0>         0.0725
     41 H9          1.7511    4.0565    0.8885 H         1 <0>         0.0745
     42 H10         3.1806    3.6522   -0.1156 H         1 <0>         0.0724
     43 H11        -0.1669    3.3848    1.2459 H         1 <0>         0.0717
     44 H12        -1.4617    2.2228    0.8931 H         1 <0>         0.0782
     45 H13        -0.4437    1.0149    4.6872 H         1 <0>         0.1092
     46 H14         0.2288   -0.6195    4.9275 H         1 <0>         0.0741
     47 H15         0.3122    0.5216    7.0217 H         1 <0>         0.0807
     48 H16         1.0116    1.9431    6.3847 H         1 <0>         0.0968
     49 H17         4.2520   -0.2074    5.7782 H         1 <0>         0.1316
     50 H18         4.6881    1.0715    3.2931 H         1 <0>         0.0899
     51 H19         4.4649   -0.6930    3.2534 H         1 <0>         0.0896
     52 H20         2.7468   -0.5310    1.5827 H         1 <0>         0.0708
     53 H21         4.0693    0.5294    1.0373 H         1 <0>         0.0770
     54 H22        -2.5577    1.6543    3.8189 H         1 <0>         0.1217
     55 H23        -3.3211    3.1851    5.5883 H         1 <0>         0.1233
     56 H24         0.3706    5.3272    5.3138 H         1 <0>         0.1205
     57 H25         1.1285    3.7839    3.5530 H         1 <0>         0.1167
     58 H26        -1.4355    7.2436    6.3062 H         1 <0>         0.0482
     59 H27        -1.2977    6.6355    7.9734 H         1 <0>         0.0661
     60 H28        -0.0903    6.1667    6.7525 H         1 <0>         0.0686
     61 H29        -3.6391    4.0288    6.9236 H         1 <0>         0.0779
     62 H30        -3.0505    4.9453    8.3314 H         1 <0>         0.0562
     63 H31        -3.9260    5.7824    7.0272 H         1 <0>         0.0519
     64 H32         0.3878   -0.3372    0.7982 H         1 <0>         0.0621
     65 H33        -0.9125    0.0804   -0.3434 H         1 <0>         0.0594
     66 H34         0.7434   -0.1863   -0.9394 H         1 <0>         0.0582
     67 H35        -1.2765    3.5972   -2.0210 H         1 <0>         0.3781
@<TRIPOS>BOND
     1    1    2 1
     2    1   36 1
     3    1   37 1
     4    1   38 1
     5    2    3 3
     6    3    4 1
     7    4    9 1
     8    4    5 1
     9    4   35 1
    10    5    6 1
    11    5   39 1
    12    5   40 1
    13    6    7 1
    14    6   41 1
    15    6   42 1
    16    7    8 1
    17    7   23 1
    18    7    9 1
    19    9   10 1
    20    9   34 1
    21   10   11 1
    22   10   43 1
    23   10   44 1
    24   11   12 1
    25   11   13 1
    26   11   25 1
    27   13   23 1
    28   13   14 2
    29   14   20 1
    30   14   15 1
    31   15   16 1
    32   15   45 1
    33   15   46 1
    34   16   17 1
    35   16   47 1
    36   16   48 1
    37   17   18 2
    38   17   19 1
    39   19   20 2
    40   19   49 1
    41   20   21 1
    42   21   22 1
    43   21   50 1
    44   21   51 1
    45   22   23 1
    46   22   52 1
    47   22   53 1
    48   23   24 1
    49   25   30 ar
    50   25   26 ar
    51   26   27 ar
    52   26   54 1
    53   27   28 ar
    54   27   55 1
    55   28   29 ar
    56   28   31 1
    57   29   30 ar
    58   29   56 1
    59   30   57 1
    60   31   32 1
    61   31   33 1
    62   32   58 1
    63   32   59 1
    64   32   60 1
    65   33   61 1
    66   33   62 1
    67   33   63 1
    68   34   64 1
    69   34   65 1
    70   34   66 1
    71   35   67 1
@<TRIPOS>MOLECULE
ZINC00538564
   43    44     0     0     0
SMALL
USER_CHARGES

@<TRIPOS>ATOM
      1 C1         -0.0322    1.5192    0.0160 C.3       1 <0>        -0.1779
      2 C2          0.0002   -0.0104    0.0036 C.3       1 <0>         0.1420
      3 C3          0.7455   -0.5148    1.2410 C.3       1 <0>        -0.6421
      4 S1         -0.0184    0.1804    2.7322 S.o2      1 <0>         2.5137
      5 O1          0.1999    1.5835    2.7852 O.2       1 <0>        -0.9239
      6 O2         -1.3216   -0.3572    2.9106 O.2       1 <0>        -0.9142
      7 C4          0.9243   -0.4722    4.0702 C.ar      1 <0>        -0.6815
      8 C5          0.5593   -1.6720    4.6517 C.ar      1 <0>         0.0062
      9 C6          1.2981   -2.1851    5.7009 C.ar      1 <0>        -0.1741
     10 C7          2.4044   -1.4968    6.1695 C.ar      1 <0>         0.1596
     11 C8          2.7690   -0.2952    5.5863 C.ar      1 <0>        -0.1736
     12 C9          2.0317    0.2133    4.5338 C.ar      1 <0>         0.0076
     13 F1          3.1271   -1.9972    7.1954 F         1 <0>        -0.1262
     14 C10         0.7078   -0.4878   -1.2383 C.2       1 <0>         0.5031
     15 O3          1.8909   -0.7516   -1.1987 O.2       1 <0>        -0.4976
     16 N1          0.0259   -0.6217   -2.3931 N.am      1 <0>        -0.6619
     17 C11         0.6990   -0.9709   -3.5645 C.ar      1 <0>         0.1712
     18 C12         1.7763   -1.8495   -3.5101 C.ar      1 <0>        -0.0928
     19 C13         2.4429   -2.1963   -4.6638 C.ar      1 <0>        -0.0476
     20 C14         2.0360   -1.6643   -5.8909 C.ar      1 <0>         0.0129
     21 C15         0.9534   -0.7820   -5.9416 C.ar      1 <0>        -0.1193
     22 C16         0.2878   -0.4441   -4.7842 C.ar      1 <0>        -0.0947
     23 C17         0.5109   -0.2059   -7.2620 C.3       1 <0>         0.5059
     24 F2         -0.5824    0.6427   -7.0576 F         1 <0>        -0.1694
     25 F3          1.5637    0.5187   -7.8309 F         1 <0>        -0.1688
     26 F4          0.1405   -1.2443   -8.1232 F         1 <0>        -0.1690
     27 C18         2.7271   -2.0223   -7.0929 C.1       1 <0>         0.2298
     28 N2          3.2753   -2.3063   -8.0464 N.1       1 <0>        -0.3736
     29 O4         -1.3366   -0.5153    0.0141 O.3       1 <0>        -0.5355
     30 H1          0.9874    1.9043    0.0081 H         1 <0>         0.0978
     31 H2         -0.5632    1.8785   -0.8655 H         1 <0>         0.0902
     32 H3         -0.5440    1.8645    0.9143 H         1 <0>         0.0988
     33 H4          0.6922   -1.6028    1.2789 H         1 <0>         0.1462
     34 H5          1.7889   -0.2038    1.1885 H         1 <0>         0.1617
     35 H6         -0.3039   -2.2085    4.2862 H         1 <0>         0.1539
     36 H7          1.0126   -3.1223    6.1552 H         1 <0>         0.1495
     37 H8          3.6315    0.2427    5.9513 H         1 <0>         0.1498
     38 H9          2.3185    1.1484    4.0758 H         1 <0>         0.1549
     39 H10        -0.9329   -0.4753   -2.4099 H         1 <0>         0.4261
     40 H11         2.0903   -2.2598   -2.5617 H         1 <0>         0.1599
     41 H12         3.2793   -2.8781   -4.6208 H         1 <0>         0.1529
     42 H13        -0.5516    0.2343   -4.8232 H         1 <0>         0.1566
     43 H14        -1.3925   -1.4807    0.0071 H         1 <0>         0.3933
@<TRIPOS>BOND
     1    1    2 1
     2    1   30 1
     3    1   31 1
     4    1   32 1
     5    2    3 1
     6    2   14 1
     7    2   29 1
     8    3    4 1
     9    3   33 1
    10    3   34 1
    11    4    5 2
    12    4    6 2
    13    4    7 1
    14    7   12 ar
    15    7    8 ar
    16    8    9 ar
    17    8   35 1
    18    9   10 ar
    19    9   36 1
    20   10   11 ar
    21   10   13 1
    22   11   12 ar
    23   11   37 1
    24   12   38 1
    25   14   15 2
    26   14   16 am
    27   16   17 1
    28   16   39 1
    29   17   22 ar
    30   17   18 ar
    31   18   19 ar
    32   18   40 1
    33   19   20 ar
    34   19   41 1
    35   20   21 ar
    36   20   27 1
    37   21   22 ar
    38   21   23 1
    39   22   42 1
    40   23   24 1
    41   23   25 1
    42   23   26 1
    43   27   28 3
    44   29   43 1
@<TRIPOS>MOLECULE
ZINC00897408
   43    44     0     0     0
SMALL
USER_CHARGES

@<TRIPOS>ATOM
      1 C1         -0.0295    1.5317    0.0187 C.3       1 <0>        -0.1782
      2 C2         -0.0000    0.0020    0.0023 C.3       1 <0>         0.1414
      3 C3          0.7447   -0.5070    1.2381 C.3       1 <0>        -0.6415
      4 S1          2.3930    0.2476    1.3042 S.o2      1 <0>         2.5138
      5 O1          3.1950   -0.2340    0.2346 O.2       1 <0>        -0.9142
      6 O2          2.2833    1.6417    1.5566 O.2       1 <0>        -0.9241
      7 C4          3.1366   -0.4153    2.7576 C.ar      1 <0>        -0.6816
      8 C5          2.9811    0.2315    3.9695 C.ar      1 <0>         0.0075
      9 C6          3.5634   -0.2877    5.1102 C.ar      1 <0>        -0.1737
     10 C7          4.3028   -1.4562    5.0389 C.ar      1 <0>         0.1596
     11 C8          4.4578   -2.1031    3.8246 C.ar      1 <0>        -0.1740
     12 C9          3.8702   -1.5848    2.6862 C.ar      1 <0>         0.0064
     13 F1          4.8729   -1.9645    6.1533 F         1 <0>        -0.1262
     14 C10        -1.4108   -0.5278    0.0124 C.2       1 <0>         0.5030
     15 O3         -1.9347   -0.8376    1.0614 O.2       1 <0>        -0.4978
     16 N1         -2.0902   -0.6573   -1.1443 N.am      1 <0>        -0.6615
     17 C11        -3.3595   -1.2371   -1.1468 C.ar      1 <0>         0.1705
     18 C12        -4.2221   -1.0235   -0.0763 C.ar      1 <0>        -0.0923
     19 C13        -5.4751   -1.5939   -0.0753 C.ar      1 <0>        -0.0476
     20 C14        -5.8803   -2.3886   -1.1517 C.ar      1 <0>         0.0129
     21 C15        -5.0111   -2.6010   -2.2252 C.ar      1 <0>        -0.1198
     22 C16        -3.7613   -2.0225   -2.2220 C.ar      1 <0>        -0.0951
     23 C17        -5.4433   -3.4568   -3.3879 C.3       1 <0>         0.5058
     24 F2         -4.4107   -3.5200   -4.3297 F         1 <0>        -0.1695
     25 F3         -5.7393   -4.7463   -2.9331 F         1 <0>        -0.1691
     26 F4         -6.5812   -2.8986   -3.9803 F         1 <0>        -0.1688
     27 C18        -7.1826   -2.9840   -1.1540 C.1       1 <0>         0.2297
     28 N2         -8.2158   -3.4563   -1.1558 N.1       1 <0>        -0.3735
     29 O4          0.6697   -0.4489   -1.1767 O.3       1 <0>        -0.5352
     30 H1          0.9909    1.9149    0.0114 H         1 <0>         0.0988
     31 H2         -0.5601    1.8943   -0.8617 H         1 <0>         0.0900
     32 H3         -0.5404    1.8756    0.9181 H         1 <0>         0.0980
     33 H4          0.1862   -0.2389    2.1350 H         1 <0>         0.1615
     34 H5          0.8434   -1.5910    1.1820 H         1 <0>         0.1460
     35 H6          2.4046    1.1431    4.0248 H         1 <0>         0.1548
     36 H7          3.4421    0.2179    6.0568 H         1 <0>         0.1498
     37 H8          5.0346   -3.0144    3.7678 H         1 <0>         0.1496
     38 H9          3.9873   -2.0916    1.7397 H         1 <0>         0.1540
     39 H10        -1.6970   -0.3474   -1.9751 H         1 <0>         0.4262
     40 H11        -3.9082   -0.4097    0.7550 H         1 <0>         0.1609
     41 H12        -6.1441   -1.4279    0.7561 H         1 <0>         0.1532
     42 H13        -3.0908   -2.1826   -3.0533 H         1 <0>         0.1566
     43 H14         0.7258   -1.4112   -1.2536 H         1 <0>         0.3937
@<TRIPOS>BOND
     1    1    2 1
     2    1   30 1
     3    1   31 1
     4    1   32 1
     5    2    3 1
     6    2   14 1
     7    2   29 1
     8    3    4 1
     9    3   33 1
    10    3   34 1
    11    4    5 2
    12    4    6 2
    13    4    7 1
    14    7   12 ar
    15    7    8 ar
    16    8    9 ar
    17    8   35 1
    18    9   10 ar
    19    9   36 1
    20   10   11 ar
    21   10   13 1
    22   11   12 ar
    23   11   37 1
    24   12   38 1
    25   14   15 2
    26   14   16 am
    27   16   17 1
    28   16   39 1
    29   17   22 ar
    30   17   18 ar
    31   18   19 ar
    32   18   40 1
    33   19   20 ar
    34   19   41 1
    35   20   21 ar
    36   20   27 1
    37   21   22 ar
    38   21   23 1
    39   22   42 1
    40   23   24 1
    41   23   25 1
    42   23   26 1
    43   27   28 3
    44   29   43 1
