@<TRIPOS>MOLECULE
ZINC01675992
   24    25     0     0     0
SMALL
USER_CHARGES
6-chloro-N'-(3,4-dichlorophenyl)-pyrimidine-2,4-diamine
@<TRIPOS>ATOM
      1 C1          0.0412    1.4325   -0.4029 C.ar      1 <0>        -0.1229
      2 C2         -1.1362    2.1006   -0.1277 C.ar      1 <0>        -0.0699
      3 C3         -1.1535    3.1170    0.8105 C.ar      1 <0>        -0.0466
      4 C4          0.0081    3.4637    1.4810 C.ar      1 <0>        -0.0062
      5 C5          1.1895    2.8019    1.2055 C.ar      1 <0>        -0.1288
      6 C6          1.2087    1.7814    0.2634 C.ar      1 <0>         0.1769
      7 N1          2.4018    1.1066   -0.0140 N.pl3     1 <0>        -0.6461
      8 C7          3.5886    1.8145   -0.1262 C.ar      1 <0>         0.4833
      9 C8          3.5831    3.2103   -0.1265 C.ar      1 <0>        -0.3274
     10 C9          4.7913    3.8745   -0.2346 C.ar      1 <0>         0.2951
     11 N2          5.9101    3.1710   -0.3452 N.ar      1 <0>        -0.5943
     12 C10         5.8837    1.8465   -0.3478 C.ar      1 <0>         0.6240
     13 N3          4.7479    1.1736   -0.2404 N.ar      1 <0>        -0.6123
     14 N4          7.0729    1.1483   -0.4651 N.pl3     1 <0>        -0.8116
     15 Cl1         4.8422    5.6098   -0.2333 Cl        1 <0>        -0.0060
     16 Cl2        -0.0190    4.7350    2.6629 Cl        1 <0>        -0.0352
     17 Cl3        -2.6349    3.9544    1.1536 Cl        1 <0>        -0.0411
     18 H1          0.0539    0.6396   -1.1360 H         1 <0>         0.1466
     19 H2         -2.0441    1.8293   -0.6459 H         1 <0>         0.1516
     20 H3          2.0960    3.0749    1.7253 H         1 <0>         0.1506
     21 H4          2.3990    0.1434   -0.1279 H         1 <0>         0.4251
     22 H5          2.6569    3.7591   -0.0398 H         1 <0>         0.1573
     23 H6          7.0675    0.1784   -0.4680 H         1 <0>         0.4184
     24 H7          7.9117    1.6290   -0.5444 H         1 <0>         0.4197
@<TRIPOS>BOND
     1    1    6 ar
     2    1    2 ar
     3    1   18 1
     4    2    3 ar
     5    2   19 1
     6    3    4 ar
     7    3   17 1
     8    4    5 ar
     9    4   16 1
    10    5    6 ar
    11    5   20 1
    12    6    7 1
    13    7    8 1
    14    7   21 1
    15    8   13 ar
    16    8    9 ar
    17    9   10 ar
    18    9   22 1
    19   10   11 ar
    20   10   15 1
    21   11   12 ar
    22   12   13 ar
    23   12   14 1
    24   14   23 1
    25   14   24 1
@<TRIPOS>MOLECULE
ZINC08616945
   25    26     0     0     0
SMALL
USER_CHARGES
2-amino-6-(3,4-dichloroanilino)pyrimidin-4-ol
@<TRIPOS>ATOM
      1 C1          3.3996    3.5483    0.7054 C.ar      1 <0>        -0.1052
      2 C2          4.5795    4.2609    0.7970 C.ar      1 <0>        -0.0771
      3 C3          4.6500    5.5514    0.3036 C.ar      1 <0>        -0.0536
      4 C4          3.5396    6.1307   -0.2882 C.ar      1 <0>        -0.0080
      5 C5          2.3585    5.4201   -0.3869 C.ar      1 <0>        -0.1353
      6 C6          2.2860    4.1243    0.1079 C.ar      1 <0>         0.1852
      7 N1          1.0920    3.4029    0.0099 N.pl3     1 <0>        -0.6564
      8 C7          1.1252    2.0268   -0.1599 C.2       1 <0>         0.4878
      9 C8         -0.0533    1.2844   -0.1394 C.2       1 <0>        -0.3856
     10 C9          0.0284   -0.0913   -0.3141 C.2       1 <0>         0.4974
     11 N2          1.2206   -0.6519   -0.4937 N.am      1 <0>        -0.6205
     12 C10         2.3218    0.0839   -0.5073 C.2       1 <0>         0.6653
     13 N3          2.2831    1.3978   -0.3446 N.2       1 <0>        -0.6193
     14 N4          3.5444   -0.5360   -0.6970 N.pl3     1 <0>        -0.8475
     15 O1         -1.0931   -0.8524   -0.3022 O.2       1 <0>        -0.6240
     16 Cl1         3.6320    7.7501   -0.9068 Cl        1 <0>        -0.0436
     17 Cl2         6.1327    6.4460    0.4258 Cl        1 <0>        -0.0497
     18 H1          3.3442    2.5425    1.0949 H         1 <0>         0.1504
     19 H2          5.4465    3.8116    1.2583 H         1 <0>         0.1446
     20 H3          1.4927    5.8719   -0.8481 H         1 <0>         0.1449
     21 H4          0.1265    3.9269    0.0675 H         1 <0>         0.4566
     22 H5         -1.0081    1.7670    0.0082 H         1 <0>         0.1512
     23 H6          4.4678    0.0616   -0.7108 H         1 <0>         0.4562
     24 H7          3.5928   -1.6264   -0.8340 H         1 <0>         0.4412
     25 H8          1.3013   -1.7400   -0.6334 H         1 <0>         0.4452
@<TRIPOS>BOND
     1    1    6 ar
     2    1    2 ar
     3    1   18 1
     4    2    3 ar
     5    2   19 1
     6    3    4 ar
     7    3   17 1
     8    4    5 ar
     9    4   16 1
    10    5    6 ar
    11    5   20 1
    12    6    7 1
    13    7    8 1
    14    7   21 1
    15    8   13 1
    16    8    9 2
    17    9   10 1
    18    9   22 1
    19   10   11 am
    20   10   15 2
    21   11   12 1
    22   11   25 1
    23   12   13 2
    24   12   14 1
    25   14   23 1
    26   14   24 1
