@<TRIPOS>MOLECULE
ZINC00020245
   46    48     0     0     0
SMALL
USER_CHARGES

@<TRIPOS>ATOM
      1 C1         -5.6836    1.3838    0.0162 C.3       1 <0>        -0.0473
      2 N1         -5.6620   -0.0833   -0.0564 N.4       1 <0>        -0.3868
      3 C2         -6.3713   -0.5242   -1.2649 C.3       1 <0>        -0.0522
      4 C3         -4.2702   -0.5505   -0.1076 C.3       1 <0>        -0.0086
      5 C4         -4.2434   -2.0795   -0.0575 C.3       1 <0>        -0.1781
      6 C5         -2.7938   -2.5661   -0.1108 C.3       1 <0>         0.1490
      7 N2         -2.7704   -4.0309   -0.1190 N.pl3     1 <0>        -0.6108
      8 C6         -2.7295   -4.7451   -1.3212 C.ar      1 <0>         0.1758
      9 C7         -1.6865   -4.4783   -2.2022 C.ar      1 <0>        -0.1411
     10 C8         -1.5734   -5.1772   -3.3856 C.ar      1 <0>        -0.1022
     11 C9         -2.5089   -6.1508   -3.6854 C.ar      1 <0>        -0.1266
     12 C10        -3.5489   -6.4041   -2.8209 C.ar      1 <0>        -0.1101
     13 C11        -3.6933   -5.6947   -1.6266 C.ar      1 <0>        -0.0998
     14 C12        -4.9357   -6.0340   -0.8354 C.3       1 <0>        -0.0687
     15 C13        -5.1005   -5.1892    0.4158 C.3       1 <0>        -0.0773
     16 C14        -3.9592   -5.4030    1.3779 C.ar      1 <0>        -0.0996
     17 C15        -2.7824   -4.7590    1.0748 C.ar      1 <0>         0.1523
     18 C16        -1.6837   -4.8488    1.9126 C.ar      1 <0>        -0.1184
     19 C17        -1.7825   -5.6251    3.0560 C.ar      1 <0>        -0.1094
     20 C18        -2.9565   -6.2950    3.3488 C.ar      1 <0>        -0.1165
     21 C19        -4.0679   -6.1865    2.5030 C.ar      1 <0>        -0.1028
     22 H1         -6.7163    1.7305    0.0542 H         1 <0>         0.1245
     23 H2         -5.1573    1.7109    0.9129 H         1 <0>         0.1235
     24 H3         -5.1933    1.7984   -0.8646 H         1 <0>         0.1221
     25 H4         -6.3552   -1.6128   -1.3188 H         1 <0>         0.1231
     26 H5         -7.4040   -0.1775   -1.2269 H         1 <0>         0.1246
     27 H6         -5.8810   -0.1096   -2.1457 H         1 <0>         0.1227
     28 H7         -3.8061   -0.2091   -1.0329 H         1 <0>         0.1308
     29 H8         -3.7207   -0.1494    0.7440 H         1 <0>         0.1320
     30 H9         -4.7075   -2.4209    0.8678 H         1 <0>         0.0908
     31 H10        -4.7929   -2.4806   -0.9091 H         1 <0>         0.0915
     32 H11        -2.3174   -2.1901   -1.0161 H         1 <0>         0.0824
     33 H12        -2.2550   -2.1990    0.7627 H         1 <0>         0.0801
     34 H13        -0.9599   -3.7176   -1.9576 H         1 <0>         0.1215
     35 H14        -0.7646   -4.9667   -4.0697 H         1 <0>         0.1276
     36 H15        -2.4229   -6.7145   -4.6025 H         1 <0>         0.1250
     37 H16        -4.2693   -7.1687   -3.0712 H         1 <0>         0.1222
     38 H17        -5.8074   -5.8880   -1.4734 H         1 <0>         0.0793
     39 H18        -4.8898   -7.0837   -0.5452 H         1 <0>         0.0765
     40 H19        -5.1365   -4.1371    0.1334 H         1 <0>         0.0724
     41 H20        -6.0358   -5.4578    0.9068 H         1 <0>         0.0709
     42 H21        -0.7686   -4.3248    1.6795 H         1 <0>         0.1257
     43 H22        -0.9372   -5.7074    3.7231 H         1 <0>         0.1275
     44 H23        -3.0178   -6.9071    4.2365 H         1 <0>         0.1269
     45 H24        -4.9880   -6.7067    2.7249 H         1 <0>         0.1290
     46 H25        -6.1159   -0.4671    0.7589 H         1 <0>         0.4268
@<TRIPOS>BOND
     1    1    2 1
     2    1   22 1
     3    1   23 1
     4    1   24 1
     5    2    3 1
     6    2    4 1
     7    2   46 1
     8    3   25 1
     9    3   26 1
    10    3   27 1
    11    4    5 1
    12    4   28 1
    13    4   29 1
    14    5    6 1
    15    5   30 1
    16    5   31 1
    17    6    7 1
    18    6   32 1
    19    6   33 1
    20    7   17 1
    21    7    8 1
    22    8   13 ar
    23    8    9 ar
    24    9   10 ar
    25    9   34 1
    26   10   11 ar
    27   10   35 1
    28   11   12 ar
    29   11   36 1
    30   12   13 ar
    31   12   37 1
    32   13   14 1
    33   14   15 1
    34   14   38 1
    35   14   39 1
    36   15   16 1
    37   15   40 1
    38   15   41 1
    39   16   21 ar
    40   16   17 ar
    41   17   18 ar
    42   18   19 ar
    43   18   42 1
    44   19   20 ar
    45   19   43 1
    46   20   21 ar
    47   20   44 1
    48   21   45 1
@<TRIPOS>MOLECULE
ZINC00057198
   46    48     0     0     0
SMALL
USER_CHARGES

@<TRIPOS>ATOM
      1 C1          0.1526    1.4065   -0.4884 C.3       1 <0>        -0.2050
      2 C2          0.1271   -0.0970   -0.3892 C.2       1 <0>         0.4028
      3 O1          1.1663   -0.7233   -0.3979 O.2       1 <0>        -0.4665
      4 C3         -1.1537   -0.8032   -0.2819 C.ar      1 <0>        -0.1393
      5 C4         -2.3545   -0.0822   -0.2775 C.ar      1 <0>        -0.0776
      6 C5         -3.5526   -0.7508   -0.1796 C.ar      1 <0>        -0.0708
      7 C6         -3.5785   -2.1401   -0.0827 C.ar      1 <0>        -0.1173
      8 C7         -2.3871   -2.8695   -0.0819 C.ar      1 <0>         0.1712
      9 C8         -1.1793   -2.2009   -0.1896 C.ar      1 <0>        -0.1064
     10 N1         -2.3765   -4.2583    0.0263 N.pl3     1 <0>        -0.5653
     11 C9         -3.4306   -5.0917   -0.3372 C.ar      1 <0>         0.1874
     12 C10        -3.1550   -6.4125   -0.6767 C.ar      1 <0>        -0.1654
     13 C11        -4.1780   -7.2681   -1.0376 C.ar      1 <0>        -0.0772
     14 C12        -5.4847   -6.8183   -1.0633 C.ar      1 <0>        -0.1289
     15 C13        -5.7701   -5.5073   -0.7298 C.ar      1 <0>        -0.0515
     16 C14        -4.7471   -4.6411   -0.3704 C.ar      1 <0>        -0.1560
     17 S1         -5.1280   -2.9704    0.0356 S.3       1 <0>         0.0458
     18 C15        -1.1674   -4.8881    0.5625 C.3       1 <0>         0.1208
     19 C16        -0.2073   -5.2082   -0.5851 C.3       1 <0>        -0.1868
     20 C17         1.0555   -5.8659   -0.0251 C.3       1 <0>        -0.0086
     21 N2          1.9773   -6.1732   -1.1268 N.4       1 <0>        -0.3869
     22 C18         3.2374   -6.6940   -0.5802 C.3       1 <0>        -0.0475
     23 C19         1.3708   -7.1820   -2.0057 C.3       1 <0>        -0.0538
     24 H1          1.1851    1.7484   -0.5600 H         1 <0>         0.0896
     25 H2         -0.3968    1.7214   -1.3756 H         1 <0>         0.0991
     26 H3         -0.3120    1.8371    0.3986 H         1 <0>         0.0996
     27 H4         -2.3398    0.9953   -0.3503 H         1 <0>         0.1471
     28 H5         -4.4787   -0.1953   -0.1775 H         1 <0>         0.1462
     29 H6         -0.2542   -2.7582   -0.1982 H         1 <0>         0.1358
     30 H7         -2.1362   -6.7706   -0.6585 H         1 <0>         0.1242
     31 H8         -3.9559   -8.2917   -1.3008 H         1 <0>         0.1331
     32 H9         -6.2822   -7.4904   -1.3440 H         1 <0>         0.1373
     33 H10        -6.7913   -5.1564   -0.7497 H         1 <0>         0.1389
     34 H11        -0.6829   -4.2072    1.2623 H         1 <0>         0.0956
     35 H12        -1.4361   -5.8095    1.0791 H         1 <0>         0.0974
     36 H13        -0.6918   -5.8891   -1.2849 H         1 <0>         0.0977
     37 H14         0.0614   -4.2868   -1.1017 H         1 <0>         0.0967
     38 H15         1.5400   -5.1850    0.6748 H         1 <0>         0.1355
     39 H16         0.7868   -6.7873    0.4916 H         1 <0>         0.1339
     40 H17         3.0385   -7.6009   -0.0092 H         1 <0>         0.1228
     41 H18         3.9213   -6.9220   -1.3977 H         1 <0>         0.1258
     42 H19         3.6874   -5.9454    0.0719 H         1 <0>         0.1248
     43 H20         0.4357   -6.7956   -2.4113 H         1 <0>         0.1224
     44 H21         2.0547   -7.4100   -2.8232 H         1 <0>         0.1264
     45 H22         1.1718   -8.0889   -1.4347 H         1 <0>         0.1239
     46 H23         2.1614   -5.3337   -1.6554 H         1 <0>         0.4287
@<TRIPOS>BOND
     1    1    2 1
     2    1   24 1
     3    1   25 1
     4    1   26 1
     5    2    3 2
     6    2    4 1
     7    4    9 ar
     8    4    5 ar
     9    5    6 ar
    10    5   27 1
    11    6    7 ar
    12    6   28 1
    13    7   17 1
    14    7    8 ar
    15    8    9 ar
    16    8   10 1
    17    9   29 1
    18   10   11 1
    19   10   18 1
    20   11   16 ar
    21   11   12 ar
    22   12   13 ar
    23   12   30 1
    24   13   14 ar
    25   13   31 1
    26   14   15 ar
    27   14   32 1
    28   15   16 ar
    29   15   33 1
    30   16   17 1
    31   18   19 1
    32   18   34 1
    33   18   35 1
    34   19   20 1
    35   19   36 1
    36   19   37 1
    37   20   21 1
    38   20   38 1
    39   20   39 1
    40   21   22 1
    41   21   23 1
    42   21   46 1
    43   22   40 1
    44   22   41 1
    45   22   42 1
    46   23   43 1
    47   23   44 1
    48   23   45 1
@<TRIPOS>MOLECULE
ZINC00010402
   41    43     0     0     0
SMALL
USER_CHARGES

@<TRIPOS>ATOM
      1 C1         -0.0178    1.4648    0.0101 C.3       1 <0>        -0.0528
      2 N1          0.0021   -0.0041    0.0020 N.4       1 <0>        -0.3866
      3 C2          0.6897   -0.4778   -1.2066 C.3       1 <0>        -0.0473
      4 C3          0.7126   -0.4907    1.1921 C.3       1 <0>        -0.0070
      5 C4         -0.0711   -0.1034    2.4478 C.3       1 <0>        -0.1731
      6 C5          0.6689   -0.6103    3.6874 C.3       1 <0>         0.1296
      7 N2         -0.0815   -0.2395    4.8897 N.pl3     1 <0>        -0.5789
      8 C6          0.1850    0.9881    5.5056 C.ar      1 <0>         0.1785
      9 C7          1.4828    1.4707    5.5711 C.ar      1 <0>        -0.1484
     10 C8          1.7388    2.6851    6.1835 C.ar      1 <0>        -0.0815
     11 C9          0.7081    3.4235    6.7325 C.ar      1 <0>        -0.1265
     12 C10        -0.5929    2.9509    6.6726 C.ar      1 <0>        -0.0580
     13 C11        -0.8536    1.7391    6.0620 C.ar      1 <0>        -0.1462
     14 S1         -2.5010    1.1099    5.9702 S.3       1 <0>         0.0077
     15 C12        -2.2363   -0.6355    5.9314 C.ar      1 <0>        -0.1463
     16 C13        -1.0482   -1.1205    5.3863 C.ar      1 <0>         0.1790
     17 C14        -0.8334   -2.4893    5.3466 C.ar      1 <0>        -0.1484
     18 C15        -1.7935   -3.3545    5.8417 C.ar      1 <0>        -0.0810
     19 C16        -2.9689   -2.8637    6.3773 C.ar      1 <0>        -0.1262
     20 C17        -3.1879   -1.5059    6.4275 C.ar      1 <0>        -0.0579
     21 H1          1.0047    1.8421    0.0024 H         1 <0>         0.1230
     22 H2         -0.5450    1.8259   -0.8730 H         1 <0>         0.1255
     23 H3         -0.5280    1.8163    0.9069 H         1 <0>         0.1238
     24 H4          1.7123   -0.1005   -1.2143 H         1 <0>         0.1224
     25 H5          0.7044   -1.5677   -1.2126 H         1 <0>         0.1238
     26 H6          0.1625   -0.1167   -2.0897 H         1 <0>         0.1252
     27 H7          0.8051   -1.5756    1.1418 H         1 <0>         0.1329
     28 H8          1.7055   -0.0428    1.2310 H         1 <0>         0.1318
     29 H9         -0.1636    0.9815    2.4982 H         1 <0>         0.0925
     30 H10        -1.0640   -0.5514    2.4090 H         1 <0>         0.0915
     31 H11         0.7614   -1.6952    3.6370 H         1 <0>         0.0914
     32 H12         1.6619   -0.1623    3.7262 H         1 <0>         0.0912
     33 H13         2.2939    0.8990    5.1448 H         1 <0>         0.1281
     34 H14         2.7512    3.0580    6.2329 H         1 <0>         0.1333
     35 H15         0.9168    4.3699    7.2092 H         1 <0>         0.1357
     36 H16        -1.3995    3.5269    7.1014 H         1 <0>         0.1375
     37 H17         0.0826   -2.8805    4.9292 H         1 <0>         0.1282
     38 H18        -1.6230   -4.4205    5.8089 H         1 <0>         0.1334
     39 H19        -3.7127   -3.5459    6.7618 H         1 <0>         0.1358
     40 H20        -4.1071   -1.1234    6.8461 H         1 <0>         0.1367
     41 H21        -0.9445   -0.3533    0.0092 H         1 <0>         0.4276
@<TRIPOS>BOND
     1    1    2 1
     2    1   21 1
     3    1   22 1
     4    1   23 1
     5    2    3 1
     6    2    4 1
     7    2   41 1
     8    3   24 1
     9    3   25 1
    10    3   26 1
    11    4    5 1
    12    4   27 1
    13    4   28 1
    14    5    6 1
    15    5   29 1
    16    5   30 1
    17    6    7 1
    18    6   31 1
    19    6   32 1
    20    7   16 1
    21    7    8 1
    22    8   13 ar
    23    8    9 ar
    24    9   10 ar
    25    9   33 1
    26   10   11 ar
    27   10   34 1
    28   11   12 ar
    29   11   35 1
    30   12   13 ar
    31   12   36 1
    32   13   14 1
    33   14   15 1
    34   15   20 ar
    35   15   16 ar
    36   16   17 ar
    37   17   18 ar
    38   17   37 1
    39   18   19 ar
    40   18   38 1
    41   19   20 ar
    42   19   39 1
    43   20   40 1
@<TRIPOS>MOLECULE
ZINC00020250
   41    43     0     0     0
SMALL
USER_CHARGES

@<TRIPOS>ATOM
      1 C1          0.1540   -0.6010   -1.4119 C.3       1 <0>        -0.1824
      2 C2         -0.2746   -0.0046   -0.0697 C.3       1 <0>        -0.0007
      3 H1         -1.3528   -0.1127    0.0482 H         1 <0>         0.1392
      4 C3          0.4390   -0.7403    1.0663 C.3       1 <0>         0.1072
      5 N1          0.0014   -2.1381    1.0937 N.pl3     1 <0>        -0.5707
      6 C4         -1.1802   -2.4673    1.7666 C.ar      1 <0>         0.1697
      7 C5         -1.5122   -1.8279    2.9508 C.ar      1 <0>        -0.1485
      8 C6         -2.6819   -2.1602    3.6116 C.ar      1 <0>        -0.0813
      9 C7         -3.5249   -3.1278    3.0994 C.ar      1 <0>        -0.1208
     10 C8         -3.2030   -3.7732    1.9165 C.ar      1 <0>        -0.0563
     11 C9         -2.0364   -3.4448    1.2528 C.ar      1 <0>        -0.1425
     12 S1         -1.5985   -4.2499   -0.2565 S.3       1 <0>         0.0158
     13 C10         0.1650   -4.1630   -0.2323 C.ar      1 <0>        -0.1447
     14 C11         0.7740   -3.1051    0.4415 C.ar      1 <0>         0.1735
     15 C12         2.1576   -3.0253    0.4618 C.ar      1 <0>        -0.1468
     16 C13         2.9153   -3.9869   -0.1839 C.ar      1 <0>        -0.0795
     17 C14         2.3018   -5.0298   -0.8513 C.ar      1 <0>        -0.1207
     18 C15         0.9287   -5.1212   -0.8709 C.ar      1 <0>        -0.0564
     19 N2          0.0819    1.4199   -0.0307 N.4       1 <0>        -0.3819
     20 C16        -0.5772    2.1202   -1.1411 C.3       1 <0>        -0.0509
     21 C17        -0.3589    2.0002    1.2448 C.3       1 <0>        -0.0535
     22 H2         -0.1105   -1.6581   -1.4409 H         1 <0>         0.1079
     23 H3         -0.3544   -0.0770   -2.2213 H         1 <0>         0.0852
     24 H4          1.2322   -0.4930   -1.5299 H         1 <0>         0.0808
     25 H5          1.5163   -0.6999    0.9052 H         1 <0>         0.1051
     26 H6          0.1957   -0.2647    2.0164 H         1 <0>         0.0996
     27 H7         -0.8582   -1.0709    3.3577 H         1 <0>         0.1267
     28 H8         -2.9374   -1.6601    4.5341 H         1 <0>         0.1350
     29 H9         -4.4354   -3.3815    3.6218 H         1 <0>         0.1378
     30 H10        -3.8608   -4.5298    1.5150 H         1 <0>         0.1398
     31 H11         2.6443   -2.2130    0.9810 H         1 <0>         0.1276
     32 H12         3.9931   -3.9214   -0.1664 H         1 <0>         0.1352
     33 H13         2.9006   -5.7760   -1.3523 H         1 <0>         0.1378
     34 H14         0.4503   -5.9366   -1.3930 H         1 <0>         0.1389
     35 H15        -1.6579    2.0134   -1.0476 H         1 <0>         0.1223
     36 H16        -0.3127    3.1772   -1.1122 H         1 <0>         0.1269
     37 H17        -0.2501    1.6896   -2.0875 H         1 <0>         0.1263
     38 H18         0.2194    1.5665    2.0605 H         1 <0>         0.1224
     39 H19        -0.2065    3.0793    1.2250 H         1 <0>         0.1287
     40 H20        -1.4169    1.7855    1.3952 H         1 <0>         0.1234
     41 H21         1.0823    1.5188   -0.1172 H         1 <0>         0.4248
@<TRIPOS>BOND
     1    1    2 1
     2    1   22 1
     3    1   23 1
     4    1   24 1
     5    2    3 1
     6    2    4 1
     7    2   19 1
     8    4    5 1
     9    4   25 1
    10    4   26 1
    11    5   14 1
    12    5    6 1
    13    6   11 ar
    14    6    7 ar
    15    7    8 ar
    16    7   27 1
    17    8    9 ar
    18    8   28 1
    19    9   10 ar
    20    9   29 1
    21   10   11 ar
    22   10   30 1
    23   11   12 1
    24   12   13 1
    25   13   18 ar
    26   13   14 ar
    27   14   15 ar
    28   15   16 ar
    29   15   31 1
    30   16   17 ar
    31   16   32 1
    32   17   18 ar
    33   17   33 1
    34   18   34 1
    35   19   20 1
    36   19   21 1
    37   19   41 1
    38   20   35 1
    39   20   36 1
    40   20   37 1
    41   21   38 1
    42   21   39 1
    43   21   40 1
@<TRIPOS>MOLECULE
ZINC00056647
   41    43     0     0     0
SMALL
USER_CHARGES

@<TRIPOS>ATOM
      1 C1          1.3066   -0.1092   -1.0556 C.3       1 <0>        -0.1822
      2 C2          0.4256    0.0595    0.1839 C.3       1 <0>        -0.0007
      3 H1          0.9006   -0.4264    1.0361 H         1 <0>         0.1392
      4 C3         -0.9410   -0.5795   -0.0710 C.3       1 <0>         0.1071
      5 N1         -0.7796   -2.0254   -0.2428 N.pl3     1 <0>        -0.5708
      6 C4         -0.6741   -2.5487   -1.5360 C.ar      1 <0>         0.1728
      7 C5         -1.4268   -2.0146   -2.5702 C.ar      1 <0>        -0.1464
      8 C6         -1.3184   -2.5387   -3.8465 C.ar      1 <0>        -0.0800
      9 C7         -0.4631   -3.5939   -4.0998 C.ar      1 <0>        -0.1207
     10 C8          0.2941   -4.1353   -3.0737 C.ar      1 <0>        -0.0564
     11 C9          0.1895   -3.6155   -1.7977 C.ar      1 <0>        -0.1449
     12 S1          1.1410   -4.2843   -0.4691 S.3       1 <0>         0.0158
     13 C10         0.1207   -3.9475    0.9322 C.ar      1 <0>        -0.1423
     14 C11        -0.7296   -2.8433    0.8913 C.ar      1 <0>         0.1702
     15 C12        -1.5307   -2.5676    1.9884 C.ar      1 <0>        -0.1489
     16 C13        -1.4773   -3.3824    3.1058 C.ar      1 <0>        -0.0807
     17 C14        -0.6290   -4.4727    3.1373 C.ar      1 <0>        -0.1208
     18 C15         0.1650   -4.7585    2.0500 C.ar      1 <0>        -0.0564
     19 N2          0.2516    1.4898    0.4700 N.4       1 <0>        -0.3819
     20 C16        -0.5699    1.6514    1.6770 C.3       1 <0>        -0.0536
     21 C17         1.5659    2.1094    0.6856 C.3       1 <0>        -0.0510
     22 H2          2.2802    0.3460   -0.8741 H         1 <0>         0.0852
     23 H3          1.4356   -1.1705   -1.2679 H         1 <0>         0.1078
     24 H4          0.8315    0.3766   -1.9079 H         1 <0>         0.0809
     25 H5         -1.5968   -0.3855    0.7778 H         1 <0>         0.0996
     26 H6         -1.3789   -0.1531   -0.9734 H         1 <0>         0.1051
     27 H7         -2.0979   -1.1901   -2.3799 H         1 <0>         0.1277
     28 H8         -1.9065   -2.1202   -4.6499 H         1 <0>         0.1353
     29 H9         -0.3851   -3.9973   -5.0986 H         1 <0>         0.1378
     30 H10         0.9628   -4.9603   -3.2701 H         1 <0>         0.1396
     31 H11        -2.1960   -1.7170    1.9713 H         1 <0>         0.1266
     32 H12        -2.1026   -3.1645    3.9590 H         1 <0>         0.1349
     33 H13        -0.5938   -5.1036    4.0132 H         1 <0>         0.1378
     34 H14         0.8278   -5.6107    2.0759 H         1 <0>         0.1390
     35 H15        -0.1429    1.0623    2.4887 H         1 <0>         0.1234
     36 H16        -0.5918    2.7028    1.9636 H         1 <0>         0.1288
     37 H17        -1.5847    1.3088    1.4744 H         1 <0>         0.1225
     38 H18         2.1755    1.9896   -0.2100 H         1 <0>         0.1263
     39 H19         1.4369    3.1708    0.8979 H         1 <0>         0.1270
     40 H20         2.0607    1.6278    1.5290 H         1 <0>         0.1223
     41 H21        -0.2064    1.9357   -0.3107 H         1 <0>         0.4248
@<TRIPOS>BOND
     1    1    2 1
     2    1   22 1
     3    1   23 1
     4    1   24 1
     5    2    3 1
     6    2    4 1
     7    2   19 1
     8    4    5 1
     9    4   25 1
    10    4   26 1
    11    5   14 1
    12    5    6 1
    13    6   11 ar
    14    6    7 ar
    15    7    8 ar
    16    7   27 1
    17    8    9 ar
    18    8   28 1
    19    9   10 ar
    20    9   29 1
    21   10   11 ar
    22   10   30 1
    23   11   12 1
    24   12   13 1
    25   13   18 ar
    26   13   14 ar
    27   14   15 ar
    28   15   16 ar
    29   15   31 1
    30   16   17 ar
    31   16   32 1
    32   17   18 ar
    33   17   33 1
    34   18   34 1
    35   19   20 1
    36   19   21 1
    37   19   41 1
    38   20   35 1
    39   20   36 1
    40   20   37 1
    41   21   38 1
    42   21   39 1
    43   21   40 1
@<TRIPOS>MOLECULE
ZINC00044027
   41    43     0     0     0
SMALL
USER_CHARGES

@<TRIPOS>ATOM
      1 C1         -4.8538   -4.0638    0.9108 C.3       1 <0>        -0.0548
      2 N1         -4.6244   -2.8061    1.6344 N.4       1 <0>        -0.3863
      3 C2         -4.0000   -3.0949    2.9324 C.3       1 <0>        -0.0478
      4 C3         -3.7364   -1.9420    0.8453 C.3       1 <0>        -0.0093
      5 C4         -4.4383   -1.5396   -0.4533 C.3       1 <0>        -0.1865
      6 C5         -3.5134   -0.6397   -1.2752 C.3       1 <0>         0.1190
      7 N2         -4.1855   -0.2544   -2.5186 N.pl3     1 <0>        -0.5621
      8 C6         -4.9466    0.9115   -2.5039 C.ar      1 <0>         0.1833
      9 C7         -5.4466    1.3707   -1.2896 C.ar      1 <0>        -0.1632
     10 C8         -6.2007    2.5274   -1.2376 C.ar      1 <0>        -0.0789
     11 C9         -6.4648    3.2382   -2.3930 C.ar      1 <0>        -0.1269
     12 C10        -5.9746    2.7903   -3.6059 C.ar      1 <0>        -0.0533
     13 C11        -5.2180    1.6285   -3.6658 C.ar      1 <0>        -0.1513
     14 S1         -4.6102    1.0681   -5.2211 S.3       1 <0>         0.0418
     15 C12        -4.1728   -0.6126   -4.9268 C.ar      1 <0>        -0.1476
     16 C13        -4.0101   -1.0788   -3.6268 C.ar      1 <0>         0.2001
     17 C14        -3.6645   -2.4105   -3.4235 C.ar      1 <0>        -0.1605
     18 C15        -3.4778   -3.2563   -4.5018 C.ar      1 <0>         0.0017
     19 C16        -3.6338   -2.7836   -5.7916 C.ar      1 <0>        -0.1199
     20 C17        -3.9865   -1.4684   -6.0025 C.ar      1 <0>        -0.0415
     21 Cl1        -3.0468   -4.9167   -4.2348 Cl        1 <0>        -0.0547
     22 H1         -5.5127   -4.7049    1.4964 H         1 <0>         0.1270
     23 H2         -5.3171   -3.8495   -0.0523 H         1 <0>         0.1230
     24 H3         -3.9018   -4.5701    0.7514 H         1 <0>         0.1245
     25 H4         -3.0479   -3.6012    2.7730 H         1 <0>         0.1232
     26 H5         -3.8297   -2.1617    3.4693 H         1 <0>         0.1245
     27 H6         -4.6589   -3.7360    3.5180 H         1 <0>         0.1260
     28 H7         -3.4947   -1.0479    1.4199 H         1 <0>         0.1356
     29 H8         -2.8190   -2.4818    0.6102 H         1 <0>         0.1342
     30 H9         -4.6799   -2.4338   -1.0279 H         1 <0>         0.0966
     31 H10        -5.3556   -0.9999   -0.2183 H         1 <0>         0.0979
     32 H11        -3.2718    0.2545   -0.7007 H         1 <0>         0.0984
     33 H12        -2.5960   -1.1794   -1.5103 H         1 <0>         0.0962
     34 H13        -5.2447    0.8199   -0.3828 H         1 <0>         0.1245
     35 H14        -6.5853    2.8770   -0.2909 H         1 <0>         0.1332
     36 H15        -7.0538    4.1423   -2.3487 H         1 <0>         0.1374
     37 H16        -6.1810    3.3459   -4.5088 H         1 <0>         0.1390
     38 H17        -3.5416   -2.7862   -2.4184 H         1 <0>         0.1339
     39 H18        -3.4863   -3.4459   -6.6318 H         1 <0>         0.1476
     40 H19        -4.1082   -1.1006   -7.0106 H         1 <0>         0.1483
     41 H20        -5.5056   -2.3374    1.7820 H         1 <0>         0.4275
@<TRIPOS>BOND
     1    1    2 1
     2    1   22 1
     3    1   23 1
     4    1   24 1
     5    2    3 1
     6    2    4 1
     7    2   41 1
     8    3   25 1
     9    3   26 1
    10    3   27 1
    11    4    5 1
    12    4   28 1
    13    4   29 1
    14    5    6 1
    15    5   30 1
    16    5   31 1
    17    6    7 1
    18    6   32 1
    19    6   33 1
    20    7   16 1
    21    7    8 1
    22    8   13 ar
    23    8    9 ar
    24    9   10 ar
    25    9   34 1
    26   10   11 ar
    27   10   35 1
    28   11   12 ar
    29   11   36 1
    30   12   13 ar
    31   12   37 1
    32   13   14 1
    33   14   15 1
    34   15   20 ar
    35   15   16 ar
    36   16   17 ar
    37   17   18 ar
    38   17   38 1
    39   18   19 ar
    40   18   21 1
    41   19   20 ar
    42   19   39 1
    43   20   40 1
@<TRIPOS>MOLECULE
ZINC03830246
   60    62     0     0     0
SMALL
USER_CHARGES

@<TRIPOS>ATOM
      1 C1         -8.2403    1.8534    0.5520 C.3       1 <0>        -0.1899
      2 C2         -6.9974    1.0075    0.8363 C.3       1 <0>        -0.0159
      3 N1         -6.0378    1.1616   -0.2652 N.4       1 <0>        -0.3861
      4 C3         -5.5611    2.5504   -0.3087 C.3       1 <0>        -0.0164
      5 C4         -4.6156    2.7280   -1.4984 C.3       1 <0>        -0.1899
      6 C5         -4.8985    0.2592   -0.0519 C.3       1 <0>        -0.0164
      7 C6         -5.3642   -1.1917   -0.1897 C.3       1 <0>        -0.1598
      8 C7         -4.1554   -2.1257   -0.1034 C.3       1 <0>        -0.1353
      9 C8         -4.6211   -3.5766   -0.2412 C.3       1 <0>         0.1387
     10 H1         -5.1922   -3.6888   -1.1628 H         1 <0>         0.0968
     11 C9         -3.4031   -4.5016   -0.2801 C.3       1 <0>        -0.1760
     12 N2         -5.4658   -3.9291    0.9027 N.pl3     1 <0>        -0.7308
     13 C10        -6.8360   -3.7963    0.8152 C.ar      1 <0>         0.3868
     14 C11        -7.5688   -4.4602   -0.1852 C.ar      1 <0>        -0.1511
     15 C12        -6.9440   -5.2843   -1.1360 C.ar      1 <0>        -0.0281
     16 C13        -7.6985   -5.9043   -2.0829 C.ar      1 <0>        -0.1211
     17 C14        -9.0826   -5.7416   -2.1335 C.ar      1 <0>         0.0721
     18 C15        -9.7446   -4.9569   -1.2408 C.ar      1 <0>        -0.1705
     19 C16        -9.0221   -4.2862   -0.2343 C.ar      1 <0>         0.2377
     20 N3         -9.6342   -3.5113    0.6568 N.ar      1 <0>        -0.5041
     21 C17        -8.9596   -2.8730    1.6138 C.ar      1 <0>         0.1873
     22 C18        -7.5507   -2.9952    1.7289 C.ar      1 <0>        -0.1169
     23 C19        -6.8745   -2.3105    2.7548 C.ar      1 <0>        -0.1146
     24 C20        -7.5791   -1.5389    3.6319 C.ar      1 <0>         0.1285
     25 C21        -8.9691   -1.4210    3.5228 C.ar      1 <0>        -0.0942
     26 C22        -9.6511   -2.0610    2.5380 C.ar      1 <0>        -0.1220
     27 O1         -6.9239   -0.8778    4.6229 O.3       1 <0>        -0.3015
     28 C23        -7.7172   -0.0862    5.5094 C.3       1 <0>         0.0139
     29 Cl1        -9.9850   -6.5618   -3.3691 Cl        1 <0>         0.0035
     30 H2         -8.9523    1.7391    1.3694 H         1 <0>         0.1046
     31 H3         -7.9540    2.9014    0.4634 H         1 <0>         0.0875
     32 H4         -8.6999    1.5222   -0.3792 H         1 <0>         0.0804
     33 H5         -6.5378    1.3386    1.7675 H         1 <0>         0.1317
     34 H6         -7.2837   -0.0405    0.9249 H         1 <0>         0.1174
     35 H7         -6.4117    3.2233   -0.4171 H         1 <0>         0.1347
     36 H8         -5.0304    2.7814    0.6149 H         1 <0>         0.1316
     37 H9         -3.7664    2.0531   -1.3915 H         1 <0>         0.0808
     38 H10        -5.1471    2.4996   -2.4222 H         1 <0>         0.0812
     39 H11        -4.2597    3.7578   -1.5290 H         1 <0>         0.1108
     40 H12        -4.1276    0.4654   -0.7944 H         1 <0>         0.1400
     41 H13        -4.4921    0.4170    0.9472 H         1 <0>         0.1337
     42 H14        -6.0630   -1.4268    0.6131 H         1 <0>         0.0826
     43 H15        -5.8582   -1.3248   -1.1521 H         1 <0>         0.0859
     44 H16        -3.4566   -1.8906   -0.9061 H         1 <0>         0.1016
     45 H17        -3.6614   -1.9925    0.8591 H         1 <0>         0.0907
     46 H18        -2.8157   -4.2916   -1.1739 H         1 <0>         0.0897
     47 H19        -2.7903   -4.3329    0.6054 H         1 <0>         0.0764
     48 H20        -3.7356   -5.5395   -0.2995 H         1 <0>         0.0759
     49 H21        -5.0615   -4.2559    1.7217 H         1 <0>         0.4299
     50 H22        -5.8733   -5.4242   -1.1156 H         1 <0>         0.1654
     51 H23        -7.2145   -6.5368   -2.8124 H         1 <0>         0.1648
     52 H24       -10.8173   -4.8485   -1.3036 H         1 <0>         0.1709
     53 H25        -5.8019   -2.3955    2.8480 H         1 <0>         0.1597
     54 H26        -9.5073   -0.8054    4.2283 H         1 <0>         0.1635
     55 H27       -10.7239   -1.9573    2.4689 H         1 <0>         0.1651
     56 H28        -7.0723    0.3858    6.2507 H         1 <0>         0.1195
     57 H29        -8.2402    0.6826    4.9406 H         1 <0>         0.0642
     58 H30        -8.4442   -0.7231    6.0133 H         1 <0>         0.0698
     59 H31        -6.4888    0.9332   -1.1385 H         1 <0>         0.4210
     60 H32       -10.5974   -3.4074    0.6090 H         1 <0>         0.4447
@<TRIPOS>BOND
     1    1    2 1
     2    1   30 1
     3    1   31 1
     4    1   32 1
     5    2    3 1
     6    2   33 1
     7    2   34 1
     8    3    4 1
     9    3    6 1
    10    3   59 1
    11    4    5 1
    12    4   35 1
    13    4   36 1
    14    5   37 1
    15    5   38 1
    16    5   39 1
    17    6    7 1
    18    6   40 1
    19    6   41 1
    20    7    8 1
    21    7   42 1
    22    7   43 1
    23    8    9 1
    24    8   44 1
    25    8   45 1
    26    9   10 1
    27    9   11 1
    28    9   12 1
    29   11   46 1
    30   11   47 1
    31   11   48 1
    32   12   13 1
    33   12   49 1
    34   13   22 ar
    35   13   14 ar
    36   14   19 ar
    37   14   15 ar
    38   15   16 ar
    39   15   50 1
    40   16   17 ar
    41   16   51 1
    42   17   18 ar
    43   17   29 1
    44   18   19 ar
    45   18   52 1
    46   19   20 ar
    47   20   21 ar
    48   20   60 1
    49   21   26 ar
    50   21   22 ar
    51   22   23 ar
    52   23   24 ar
    53   23   53 1
    54   24   25 ar
    55   24   27 1
    56   25   26 ar
    57   25   54 1
    58   26   55 1
    59   27   28 1
    60   28   56 1
    61   28   57 1
    62   28   58 1
@<TRIPOS>MOLECULE
ZINC03830247
   60    62     0     0     0
SMALL
USER_CHARGES

@<TRIPOS>ATOM
      1 C1         -8.1290    1.8607    0.5054 C.3       1 <0>        -0.1892
      2 C2         -6.8536    1.0352    0.6867 C.3       1 <0>        -0.0154
      3 N1         -6.0220    1.1477   -0.5190 N.4       1 <0>        -0.3868
      4 C3         -5.5677    2.5362   -0.6727 C.3       1 <0>        -0.0168
      5 C4         -4.6452    2.6393   -1.8889 C.3       1 <0>        -0.1894
      6 C5         -4.8566    0.2621   -0.3943 C.3       1 <0>        -0.0180
      7 C6         -5.3166   -1.1962   -0.4434 C.3       1 <0>        -0.1601
      8 C7         -4.0943   -2.1155   -0.4837 C.3       1 <0>        -0.1363
      9 C8         -4.5543   -3.5739   -0.5328 C.3       1 <0>         0.1336
     10 H1         -5.2206   -3.7732    0.3066 H         1 <0>         0.0986
     11 C9         -3.3364   -4.4960   -0.4473 C.3       1 <0>        -0.1742
     12 N2         -5.2656   -3.8195   -1.7898 N.pl3     1 <0>        -0.7234
     13 C10        -6.6116   -3.5340   -1.8879 C.ar      1 <0>         0.3882
     14 C11        -7.5379   -4.0736   -0.9772 C.ar      1 <0>        -0.1560
     15 C12        -7.1387   -4.9231    0.0681 C.ar      1 <0>        -0.0302
     16 C13        -8.0745   -5.4182    0.9222 C.ar      1 <0>        -0.1221
     17 C14        -9.4258   -5.1022    0.7855 C.ar      1 <0>         0.0715
     18 C15        -9.8736   -4.2854   -0.2061 C.ar      1 <0>        -0.1709
     19 C16        -8.9560   -3.7388   -1.1248 C.ar      1 <0>         0.2379
     20 N3         -9.3557   -2.9356   -2.1068 N.ar      1 <0>        -0.5075
     21 C17        -8.4951   -2.4125   -2.9808 C.ar      1 <0>         0.1852
     22 C18        -7.1052   -2.6866   -2.9006 C.ar      1 <0>        -0.1187
     23 C19        -6.2276   -2.1122   -3.8378 C.ar      1 <0>        -0.1114
     24 C20        -6.7194   -1.2940   -4.8124 C.ar      1 <0>         0.1305
     25 C21        -8.0891   -1.0189   -4.8902 C.ar      1 <0>        -0.0929
     26 C22        -8.9645   -1.5649   -4.0070 C.ar      1 <0>        -0.1235
     27 O1         -5.8696   -0.7397   -5.7174 O.3       1 <0>        -0.3009
     28 C23        -6.4454    0.1079   -6.7134 C.3       1 <0>         0.0143
     29 Cl1       -10.5673   -5.7694    1.9104 Cl        1 <0>         0.0030
     30 H2         -8.7461    1.7772    1.4000 H         1 <0>         0.1092
     31 H3         -7.8654    2.9056    0.3421 H         1 <0>         0.0853
     32 H4         -8.6842    1.4872   -0.3551 H         1 <0>         0.0750
     33 H5         -6.2984    1.4086    1.5472 H         1 <0>         0.1348
     34 H6         -7.1173   -0.0097    0.8501 H         1 <0>         0.1241
     35 H7         -6.4303    3.1871   -0.8147 H         1 <0>         0.1341
     36 H8         -5.0251    2.8421    0.2218 H         1 <0>         0.1338
     37 H9         -3.7676    2.0118   -1.7336 H         1 <0>         0.0823
     38 H10        -5.1784    2.3046   -2.7787 H         1 <0>         0.0774
     39 H11        -4.3324    3.6751   -2.0210 H         1 <0>         0.1109
     40 H12        -4.1657    0.4530   -1.2155 H         1 <0>         0.1391
     41 H13        -4.3549    0.4531    0.5544 H         1 <0>         0.1371
     42 H14        -5.9104   -1.4199    0.4428 H         1 <0>         0.0886
     43 H15        -5.9214   -1.3566   -1.3360 H         1 <0>         0.0785
     44 H16        -3.5004   -1.8918   -1.3699 H         1 <0>         0.0907
     45 H17        -3.4895   -1.9552    0.4089 H         1 <0>         0.1031
     46 H18        -3.6656   -5.5350   -0.4623 H         1 <0>         0.0772
     47 H19        -2.6799   -4.3106   -1.2975 H         1 <0>         0.0763
     48 H20        -2.7961   -4.2994    0.4787 H         1 <0>         0.0912
     49 H21        -4.7900   -4.1829   -2.5531 H         1 <0>         0.4305
     50 H22        -6.0974   -5.1812    0.1923 H         1 <0>         0.1668
     51 H23        -7.7638   -6.0713    1.7244 H         1 <0>         0.1645
     52 H24       -10.9261   -4.0577   -0.2887 H         1 <0>         0.1704
     53 H25        -5.1686   -2.3178   -3.7859 H         1 <0>         0.1594
     54 H26        -8.4570   -0.3678   -5.6694 H         1 <0>         0.1633
     55 H27       -10.0184   -1.3420   -4.0834 H         1 <0>         0.1645
     56 H28        -5.6599    0.4831   -7.3694 H         1 <0>         0.1197
     57 H29        -7.1682   -0.4594   -7.2997 H         1 <0>         0.0694
     58 H30        -6.9471    0.9467   -6.2308 H         1 <0>         0.0644
     59 H31        -6.5633    0.8795   -1.3271 H         1 <0>         0.4153
     60 H32       -10.2989   -2.7249   -2.1896 H         1 <0>         0.4441
@<TRIPOS>BOND
     1    1    2 1
     2    1   30 1
     3    1   31 1
     4    1   32 1
     5    2    3 1
     6    2   33 1
     7    2   34 1
     8    3    4 1
     9    3    6 1
    10    3   59 1
    11    4    5 1
    12    4   35 1
    13    4   36 1
    14    5   37 1
    15    5   38 1
    16    5   39 1
    17    6    7 1
    18    6   40 1
    19    6   41 1
    20    7    8 1
    21    7   42 1
    22    7   43 1
    23    8    9 1
    24    8   44 1
    25    8   45 1
    26    9   10 1
    27    9   11 1
    28    9   12 1
    29   11   46 1
    30   11   47 1
    31   11   48 1
    32   12   13 1
    33   12   49 1
    34   13   22 ar
    35   13   14 ar
    36   14   19 ar
    37   14   15 ar
    38   15   16 ar
    39   15   50 1
    40   16   17 ar
    41   16   51 1
    42   17   18 ar
    43   17   29 1
    44   18   19 ar
    45   18   52 1
    46   19   20 ar
    47   20   21 ar
    48   20   60 1
    49   21   26 ar
    50   21   22 ar
    51   22   23 ar
    52   23   24 ar
    53   23   53 1
    54   24   25 ar
    55   24   27 1
    56   25   26 ar
    57   25   54 1
    58   26   55 1
    59   27   28 1
    60   28   56 1
    61   28   57 1
    62   28   58 1
@<TRIPOS>MOLECULE
ZINC01530860
   50    51     0     0     0
SMALL
USER_CHARGES

@<TRIPOS>ATOM
      1 C1          0.0823    1.4510   -0.2163 C.3       1 <0>        -0.1903
      2 C2          0.0237   -0.0664   -0.0289 C.3       1 <0>        -0.0143
      3 N1         -1.3740   -0.4850    0.1418 N.4       1 <0>        -0.3869
      4 C3         -2.1159   -0.2330   -1.1009 C.3       1 <0>        -0.0160
      5 C4         -3.5996   -0.5332   -0.8788 C.3       1 <0>        -0.1889
      6 C5         -1.4206   -1.9189    0.4577 C.3       1 <0>        -0.0160
      7 C6         -0.7562   -2.1642    1.8139 C.3       1 <0>        -0.1531
      8 C7         -0.8047   -3.6576    2.1429 C.3       1 <0>        -0.1306
      9 C8         -0.1402   -3.9029    3.4991 C.3       1 <0>         0.1283
     10 H1         -0.6138   -3.2758    4.2544 H         1 <0>         0.1053
     11 C9         -0.2985   -5.3747    3.8858 C.3       1 <0>        -0.1803
     12 N2          1.2841   -3.5713    3.4121 N.pl3     1 <0>        -0.6786
     13 C10         1.9824   -3.2088    4.5537 C.ar      1 <0>         0.3547
     14 C11         1.3560   -3.1586    5.7895 C.ar      1 <0>        -0.2665
     15 C12         2.0821   -2.7926    6.9140 C.ar      1 <0>         0.2404
     16 N3          3.3577   -2.4886    6.8466 N.ar      1 <0>        -0.5038
     17 C13         4.0259   -2.5152    5.6879 C.ar      1 <0>         0.1857
     18 C14         3.3585   -2.8841    4.4953 C.ar      1 <0>        -0.1339
     19 C15         4.0649   -2.9157    3.2847 C.ar      1 <0>        -0.0505
     20 C16         5.3889   -2.5961    3.2686 C.ar      1 <0>        -0.1009
     21 C17         6.0512   -2.2380    4.4418 C.ar      1 <0>         0.0417
     22 C18         5.3910   -2.1860    5.6326 C.ar      1 <0>        -0.1402
     23 Cl1         7.7395   -1.8382    4.3823 Cl        1 <0>        -0.0018
     24 H2          1.1228    1.7753   -0.2311 H         1 <0>         0.1068
     25 H3         -0.3953    1.7194   -1.1586 H         1 <0>         0.0848
     26 H4         -0.4388    1.9392    0.6072 H         1 <0>         0.0802
     27 H5          0.4455   -0.5574   -0.9059 H         1 <0>         0.1304
     28 H6          0.5971   -0.3457    0.8550 H         1 <0>         0.1244
     29 H7         -1.9958    0.8109   -1.3904 H         1 <0>         0.1347
     30 H8         -1.7294   -0.8761   -1.8915 H         1 <0>         0.1309
     31 H9         -4.1656   -0.2421   -1.7637 H         1 <0>         0.1098
     32 H10        -3.7314   -1.6000   -0.6980 H         1 <0>         0.0800
     33 H11        -3.9590    0.0285   -0.0166 H         1 <0>         0.0802
     34 H12        -2.4588   -2.2488    0.4968 H         1 <0>         0.1375
     35 H13        -0.8905   -2.4782   -0.3132 H         1 <0>         0.1319
     36 H14         0.2820   -1.8343    1.7748 H         1 <0>         0.0832
     37 H15        -1.2864   -1.6049    2.5847 H         1 <0>         0.0927
     38 H16        -1.8428   -3.9875    2.1820 H         1 <0>         0.1078
     39 H17        -0.2745   -4.2169    1.3720 H         1 <0>         0.0895
     40 H18         0.1751   -6.0018    3.1304 H         1 <0>         0.0726
     41 H19         0.1749   -5.5495    4.8519 H         1 <0>         0.0711
     42 H20        -1.3582   -5.6215    3.9505 H         1 <0>         0.0881
     43 H21         1.7386   -3.6053    2.5558 H         1 <0>         0.4161
     44 H22         0.3076   -3.4029    5.8765 H         1 <0>         0.1793
     45 H23         1.5839   -2.7565    7.8715 H         1 <0>         0.2103
     46 H24         3.5620   -3.1923    2.3699 H         1 <0>         0.1509
     47 H25         5.9323   -2.6207    2.3356 H         1 <0>         0.1625
     48 H26         5.9179   -1.9061    6.5327 H         1 <0>         0.1693
     49 H27        -1.7925    0.0392    0.8955 H         1 <0>         0.4223
     50 H28         3.8273   -2.2380    7.6575 H         1 <0>         0.4488
@<TRIPOS>BOND
     1    1    2 1
     2    1   24 1
     3    1   25 1
     4    1   26 1
     5    2    3 1
     6    2   27 1
     7    2   28 1
     8    3    4 1
     9    3    6 1
    10    3   49 1
    11    4    5 1
    12    4   29 1
    13    4   30 1
    14    5   31 1
    15    5   32 1
    16    5   33 1
    17    6    7 1
    18    6   34 1
    19    6   35 1
    20    7    8 1
    21    7   36 1
    22    7   37 1
    23    8    9 1
    24    8   38 1
    25    8   39 1
    26    9   10 1
    27    9   11 1
    28    9   12 1
    29   11   40 1
    30   11   41 1
    31   11   42 1
    32   12   13 1
    33   12   43 1
    34   13   18 ar
    35   13   14 ar
    36   14   15 ar
    37   14   44 1
    38   15   16 ar
    39   15   45 1
    40   16   17 ar
    41   16   50 1
    42   17   22 ar
    43   17   18 ar
    44   18   19 ar
    45   19   20 ar
    46   19   46 1
    47   20   21 ar
    48   20   47 1
    49   21   22 ar
    50   21   23 1
    51   22   48 1
@<TRIPOS>MOLECULE
ZINC01530861
   50    51     0     0     0
SMALL
USER_CHARGES

@<TRIPOS>ATOM
      1 C1          0.0823    1.4510   -0.2163 C.3       1 <0>        -0.1898
      2 C2          0.0237   -0.0664   -0.0289 C.3       1 <0>        -0.0154
      3 N1         -1.3740   -0.4850    0.1418 N.4       1 <0>        -0.3864
      4 C3         -2.1159   -0.2330   -1.1009 C.3       1 <0>        -0.0167
      5 C4         -3.5996   -0.5332   -0.8788 C.3       1 <0>        -0.1881
      6 C5         -1.4206   -1.9189    0.4577 C.3       1 <0>        -0.0162
      7 C6         -0.7562   -2.1642    1.8139 C.3       1 <0>        -0.1531
      8 C7         -0.8047   -3.6576    2.1429 C.3       1 <0>        -0.1307
      9 C8         -0.1402   -3.9029    3.4991 C.3       1 <0>         0.1285
     10 H1          0.8696   -3.4928    3.4883 H         1 <0>         0.1049
     11 C9         -0.0770   -5.4071    3.7714 C.3       1 <0>        -0.1802
     12 N2         -0.9219   -3.2486    4.5513 N.pl3     1 <0>        -0.6784
     13 C10        -0.3101   -2.8735    5.7376 C.ar      1 <0>         0.3550
     14 C11         1.0409   -3.1017    5.9489 C.ar      1 <0>        -0.2671
     15 C12         1.6245   -2.7142    7.1468 C.ar      1 <0>         0.2403
     16 N3          0.9324   -2.1317    8.0984 N.ar      1 <0>        -0.5038
     17 C13        -0.3748   -1.8810    7.9634 C.ar      1 <0>         0.1856
     18 C14        -1.0437   -2.2401    6.7687 C.ar      1 <0>        -0.1339
     19 C15        -2.4124   -1.9700    6.6303 C.ar      1 <0>        -0.0501
     20 C16        -3.0847   -1.3591    7.6453 C.ar      1 <0>        -0.1009
     21 C17        -2.4283   -0.9984    8.8210 C.ar      1 <0>         0.0418
     22 C18        -1.1016   -1.2576    8.9919 C.ar      1 <0>        -0.1403
     23 Cl1        -3.3181   -0.2204   10.0925 Cl        1 <0>        -0.0018
     24 H2          1.1228    1.7753   -0.2311 H         1 <0>         0.1081
     25 H3         -0.3953    1.7194   -1.1586 H         1 <0>         0.0841
     26 H4         -0.4388    1.9392    0.6072 H         1 <0>         0.0786
     27 H5          0.4455   -0.5574   -0.9059 H         1 <0>         0.1320
     28 H6          0.5971   -0.3457    0.8550 H         1 <0>         0.1275
     29 H7         -1.9958    0.8109   -1.3904 H         1 <0>         0.1349
     30 H8         -1.7294   -0.8761   -1.8915 H         1 <0>         0.1320
     31 H9         -4.1656   -0.2421   -1.7637 H         1 <0>         0.1099
     32 H10        -3.7314   -1.6000   -0.6980 H         1 <0>         0.0794
     33 H11        -3.9590    0.0285   -0.0166 H         1 <0>         0.0786
     34 H12        -2.4588   -2.2488    0.4968 H         1 <0>         0.1346
     35 H13        -0.8905   -2.4782   -0.3132 H         1 <0>         0.1347
     36 H14         0.2820   -1.8343    1.7748 H         1 <0>         0.0929
     37 H15        -1.2864   -1.6049    2.5847 H         1 <0>         0.0830
     38 H16        -1.8428   -3.9875    2.1820 H         1 <0>         0.0897
     39 H17        -0.2745   -4.2169    1.3720 H         1 <0>         0.1076
     40 H18        -1.0868   -5.8172    3.7821 H         1 <0>         0.0727
     41 H19         0.5046   -5.8940    2.9885 H         1 <0>         0.0879
     42 H20         0.3964   -5.5819    4.7375 H         1 <0>         0.0711
     43 H21        -1.8674   -3.0779    4.4180 H         1 <0>         0.4164
     44 H22         1.6364   -3.5792    5.1848 H         1 <0>         0.1791
     45 H23         2.6777   -2.8972    7.3008 H         1 <0>         0.2102
     46 H24        -2.9309   -2.2445    5.7235 H         1 <0>         0.1511
     47 H25        -4.1391   -1.1514    7.5378 H         1 <0>         0.1626
     48 H26        -0.6074   -0.9726    9.9090 H         1 <0>         0.1693
     49 H27        -1.7925    0.0392    0.8955 H         1 <0>         0.4199
     50 H28         1.3801   -1.8771    8.9203 H         1 <0>         0.4488
@<TRIPOS>BOND
     1    1    2 1
     2    1   24 1
     3    1   25 1
     4    1   26 1
     5    2    3 1
     6    2   27 1
     7    2   28 1
     8    3    4 1
     9    3    6 1
    10    3   49 1
    11    4    5 1
    12    4   29 1
    13    4   30 1
    14    5   31 1
    15    5   32 1
    16    5   33 1
    17    6    7 1
    18    6   34 1
    19    6   35 1
    20    7    8 1
    21    7   36 1
    22    7   37 1
    23    8    9 1
    24    8   38 1
    25    8   39 1
    26    9   10 1
    27    9   11 1
    28    9   12 1
    29   11   40 1
    30   11   41 1
    31   11   42 1
    32   12   13 1
    33   12   43 1
    34   13   18 ar
    35   13   14 ar
    36   14   15 ar
    37   14   44 1
    38   15   16 ar
    39   15   45 1
    40   16   17 ar
    41   16   50 1
    42   17   22 ar
    43   17   18 ar
    44   18   19 ar
    45   19   20 ar
    46   19   46 1
    47   20   21 ar
    48   20   47 1
    49   21   22 ar
    50   21   23 1
    51   22   48 1
