@<TRIPOS>MOLECULE
ZINC04356960
   30    31     0     0     0
SMALL
USER_CHARGES

@<TRIPOS>ATOM
      1 C1         -0.0187    1.5258    0.0104 C.3       1 <0>        -0.1589
      2 C2          0.0021   -0.0041    0.0020 C.3       1 <0>         0.0411
      3 H1          0.5293   -0.3651    0.8851 H         1 <0>         0.1068
      4 C3         -1.4117   -0.5257    0.0127 C.2       1 <0>         0.4962
      5 O1         -1.9937   -0.7310   -1.0388 O.co2     1 <0>        -0.6467
      6 O2         -1.9736   -0.7424    1.0729 O.co2     1 <0>        -0.6782
      7 N1          0.6878   -0.4765   -1.2033 N.am      1 <0>        -0.4950
      8 C4          1.7701   -1.2259   -1.0853 C.2       1 <0>         0.5312
      9 O3          2.2060   -1.5296    0.0109 O.2       1 <0>        -0.4887
     10 C5          2.4125   -1.6690   -2.2798 C.2       1 <0>        -0.1986
     11 C6          3.5383   -2.4486   -2.4320 C.2       1 <0>         0.0336
     12 C7          4.0022   -2.7679   -3.7175 C.2       1 <0>        -0.1265
     13 C8          5.1144   -3.5381   -3.8679 C.2       1 <0>        -0.0402
     14 C9          5.5819   -3.8598   -5.1635 C.2       1 <0>         0.0022
     15 C10         6.6873   -4.6318   -5.4613 C.2       1 <0>        -0.1749
     16 C11         6.7716   -4.6851   -6.8613 C.2       1 <0>        -0.2179
     17 C12         5.7408   -3.9621   -7.3518 C.2       1 <0>        -0.0228
     18 O4          5.0240   -3.4721   -6.3293 O.3       1 <0>        -0.1650
     19 S1          1.3588   -0.9379   -3.5249 S.3       1 <0>        -0.0107
     20 C13         0.2012   -0.1443   -2.4197 C.2       1 <0>         0.2407
     21 S2         -1.1742    0.7999   -2.8039 S.2       1 <0>        -0.1838
     22 H2          1.0039    1.9031    0.0027 H         1 <0>         0.0438
     23 H3         -0.5459    1.8868   -0.8726 H         1 <0>         0.0889
     24 H4         -0.5289    1.8773    0.9072 H         1 <0>         0.0756
     25 H5          4.0638   -2.8140   -1.5621 H         1 <0>         0.1523
     26 H6          3.4767   -2.4025   -4.5875 H         1 <0>         0.1291
     27 H7          5.6399   -3.9034   -2.9980 H         1 <0>         0.1545
     28 H8          7.3561   -5.1020   -4.7555 H         1 <0>         0.1548
     29 H9          7.5205   -5.2066   -7.4388 H         1 <0>         0.1519
     30 H10         5.5258   -3.8075   -8.3988 H         1 <0>         0.2054
@<TRIPOS>BOND
     1    1    2 1
     2    1   22 1
     3    1   23 1
     4    1   24 1
     5    2    3 1
     6    2    4 1
     7    2    7 1
     8    4    5 2
     9    4    6 1
    10    7   20 1
    11    7    8 am
    12    8    9 2
    13    8   10 1
    14   10   11 2
    15   10   19 1
    16   11   12 1
    17   11   25 1
    18   12   13 2
    19   12   26 1
    20   13   14 1
    21   13   27 1
    22   14   18 1
    23   14   15 2
    24   15   16 1
    25   15   28 1
    26   16   17 2
    27   16   29 1
    28   17   18 1
    29   17   30 1
    30   19   20 1
    31   20   21 2
@<TRIPOS>MOLECULE
ZINC04356963
   30    31     0     0     0
SMALL
USER_CHARGES

@<TRIPOS>ATOM
      1 C1         -0.0187    1.5258    0.0104 C.3       1 <0>        -0.1567
      2 C2          0.0021   -0.0041    0.0020 C.3       1 <0>         0.0375
      3 H1          0.5293   -0.3651    0.8851 H         1 <0>         0.1080
      4 C3          0.7074   -0.4901   -1.2379 C.2       1 <0>         0.5019
      5 O1          1.9112   -0.3358   -1.3544 O.co2     1 <0>        -0.6794
      6 O2          0.0743   -1.0375   -2.1244 O.co2     1 <0>        -0.6619
      7 N1         -1.3723   -0.5112    0.0124 N.am      1 <0>        -0.4921
      8 C4         -1.7762   -1.2773    1.0108 C.2       1 <0>         0.5357
      9 O3         -1.0225   -1.5682    1.9225 O.2       1 <0>        -0.4827
     10 C5         -3.1211   -1.7533    0.9893 C.2       1 <0>        -0.2071
     11 C6         -3.7817   -2.5548    1.8946 C.2       1 <0>         0.0440
     12 C7         -5.1225   -2.9056    1.6736 C.2       1 <0>        -0.1322
     13 C8         -5.7752   -3.6974    2.5680 C.2       1 <0>        -0.0332
     14 C9         -7.1264   -4.0509    2.3453 C.2       1 <0>        -0.0011
     15 C10        -7.9079   -4.8381    3.1677 C.2       1 <0>        -0.1718
     16 C11        -9.1695   -4.9224    2.5584 C.2       1 <0>        -0.2186
     17 C12        -9.1113   -4.2019    1.4168 C.2       1 <0>        -0.0203
     18 O4         -7.8841   -3.6744    1.2940 O.3       1 <0>        -0.1646
     19 S1         -3.7158   -1.0263   -0.5316 S.3       1 <0>         0.0004
     20 C13        -2.2104   -0.1840   -0.9962 C.2       1 <0>         0.2909
     21 S2         -1.9058    0.7886   -2.3718 S.2       1 <0>        -0.2587
     22 H2          1.0039    1.9031    0.0027 H         1 <0>         0.0805
     23 H3         -0.5459    1.8868   -0.8726 H         1 <0>         0.0869
     24 H4         -0.5289    1.8773    0.9072 H         1 <0>         0.0424
     25 H5         -3.2678   -2.9130    2.7743 H         1 <0>         0.1536
     26 H6         -5.6365   -2.5473    0.7939 H         1 <0>         0.1300
     27 H7         -5.2613   -4.0556    3.4477 H         1 <0>         0.1553
     28 H8         -7.6072   -5.2988    4.0970 H         1 <0>         0.1553
     29 H9        -10.0268   -5.4624    2.9324 H         1 <0>         0.1524
     30 H10        -9.9237   -4.0683    0.7178 H         1 <0>         0.2059
@<TRIPOS>BOND
     1    1    2 1
     2    1   22 1
     3    1   23 1
     4    1   24 1
     5    2    3 1
     6    2    4 1
     7    2    7 1
     8    4    5 2
     9    4    6 1
    10    7   20 1
    11    7    8 am
    12    8    9 2
    13    8   10 1
    14   10   11 2
    15   10   19 1
    16   11   12 1
    17   11   25 1
    18   12   13 2
    19   12   26 1
    20   13   14 1
    21   13   27 1
    22   14   18 1
    23   14   15 2
    24   15   16 1
    25   15   28 1
    26   16   17 2
    27   16   29 1
    28   17   18 1
    29   17   30 1
    30   19   20 1
    31   20   21 2
@<TRIPOS>MOLECULE
ZINC08451845
   51    54     0     0     0
SMALL
USER_CHARGES

@<TRIPOS>ATOM
      1 C1         -1.2489   -0.7596   -0.6990 C.3       1 <0>        -0.1158
      2 C2         -0.6148   -2.1183   -0.5476 C.ar      1 <0>        -0.1108
      3 C3         -0.6304   -3.0100   -1.6025 C.ar      1 <0>        -0.1043
      4 C4         -0.0488   -4.2567   -1.4644 C.ar      1 <0>        -0.1296
      5 C5          0.5505   -4.6151   -0.2706 C.ar      1 <0>        -0.1070
      6 C6          0.5698   -3.7281    0.7876 C.ar      1 <0>        -0.1166
      7 C7         -0.0093   -2.4731    0.6505 C.ar      1 <0>         0.1425
      8 N1          0.0132   -1.5700    1.7190 N.am      1 <0>        -0.6671
      9 C8         -0.0668   -2.0229    2.9859 C.2       1 <0>         0.5035
     10 O1         -0.0742   -3.2159    3.2041 O.2       1 <0>        -0.5013
     11 C9         -0.1470   -1.0469    4.1313 C.3       1 <0>         0.0769
     12 N2         -0.2252   -1.7830    5.3956 N.am      1 <0>        -0.5641
     13 C10        -1.4076   -2.1210    5.8800 C.2       1 <0>         0.5684
     14 O2         -2.4332   -1.8297    5.2914 O.2       1 <0>        -0.4818
     15 C11        -1.4463   -2.8383    7.1141 C.2       1 <0>        -0.2469
     16 C12        -2.5205   -3.2976    7.8170 C.2       1 <0>         0.1321
     17 C13        -2.3332   -3.8922    9.0863 C.2       1 <0>        -0.0232
     18 C14        -1.1187   -4.1770    9.6860 C.2       1 <0>        -0.1075
     19 C15        -1.3984   -4.7569   10.9274 C.2       1 <0>        -0.2066
     20 C16        -2.7447   -4.8176   11.0668 C.2       1 <0>         0.0592
     21 N3         -3.3271   -4.2892    9.9561 N.pl3     1 <0>        -0.3673
     22 C17        -4.7052   -4.1718    9.7322 C.ar      1 <0>         0.0692
     23 C18        -5.2584   -2.9303    9.4412 C.ar      1 <0>        -0.1194
     24 C19        -6.6174   -2.8081    9.2193 C.ar      1 <0>        -0.1220
     25 C20        -7.4346   -3.9180    9.2846 C.ar      1 <0>        -0.0706
     26 C21        -6.8887   -5.1707    9.5760 C.ar      1 <0>        -0.1170
     27 C22        -5.5151   -5.2940    9.7952 C.ar      1 <0>        -0.0696
     28 C23        -7.7596   -6.3597    9.6472 C.2       1 <0>         0.5202
     29 O3         -8.9617   -6.2498    9.4510 O.co2     1 <0>        -0.6791
     30 O4         -7.2794   -7.4550    9.9023 O.co2     1 <0>        -0.6802
     31 S1          0.2970   -2.9700    7.4866 S.3       1 <0>        -0.0302
     32 C24         0.9129   -2.1113    6.0463 C.2       1 <0>         0.5371
     33 O5          2.0649   -1.8794    5.7317 O.2       1 <0>        -0.4290
     34 H1         -0.5088   -0.0531   -1.0747 H         1 <0>         0.0711
     35 H2         -2.0801   -0.8228   -1.4013 H         1 <0>         0.0722
     36 H3         -1.6165   -0.4203    0.2694 H         1 <0>         0.0642
     37 H4         -1.0976   -2.7331   -2.5360 H         1 <0>         0.1257
     38 H5         -0.0629   -4.9524   -2.2904 H         1 <0>         0.1233
     39 H6          1.0037   -5.5898   -0.1658 H         1 <0>         0.1255
     40 H7          1.0377   -4.0086    1.7196 H         1 <0>         0.1394
     41 H8          0.0864   -0.6180    1.5480 H         1 <0>         0.4120
     42 H9          0.7412   -0.4150    4.1332 H         1 <0>         0.1297
     43 H10        -1.0350   -0.4251    4.0174 H         1 <0>         0.1347
     44 H11        -3.5145   -3.2074    7.4043 H         1 <0>         0.1579
     45 H12        -0.1391   -3.9870    9.2729 H         1 <0>         0.1508
     46 H13        -0.6694   -5.0967   11.6482 H         1 <0>         0.1511
     47 H14        -3.2701   -5.2160   11.9221 H         1 <0>         0.1760
     48 H15        -4.6242   -2.0577    9.3885 H         1 <0>         0.1225
     49 H16        -7.0411   -1.8405    8.9943 H         1 <0>         0.1284
     50 H17        -8.4959   -3.8184    9.1110 H         1 <0>         0.1365
     51 H18        -5.0863   -6.2600   10.0172 H         1 <0>         0.1368
@<TRIPOS>BOND
     1    1    2 1
     2    1   34 1
     3    1   35 1
     4    1   36 1
     5    2    7 ar
     6    2    3 ar
     7    3    4 ar
     8    3   37 1
     9    4    5 ar
    10    4   38 1
    11    5    6 ar
    12    5   39 1
    13    6    7 ar
    14    6   40 1
    15    7    8 1
    16    8    9 am
    17    8   41 1
    18    9   10 2
    19    9   11 1
    20   11   12 1
    21   11   42 1
    22   11   43 1
    23   12   32 am
    24   12   13 am
    25   13   14 2
    26   13   15 1
    27   15   16 2
    28   15   31 1
    29   16   17 1
    30   16   44 1
    31   17   21 1
    32   17   18 2
    33   18   19 1
    34   18   45 1
    35   19   20 2
    36   19   46 1
    37   20   21 1
    38   20   47 1
    39   21   22 1
    40   22   27 ar
    41   22   23 ar
    42   23   24 ar
    43   23   48 1
    44   24   25 ar
    45   24   49 1
    46   25   26 ar
    47   25   50 1
    48   26   27 ar
    49   26   28 1
    50   27   51 1
    51   28   29 2
    52   28   30 1
    53   31   32 1
    54   32   33 2
@<TRIPOS>MOLECULE
ZINC08451844
   54    57     0     0     0
SMALL
USER_CHARGES

@<TRIPOS>ATOM
      1 C1         -0.1726    2.7891   -2.0344 C.3       1 <0>        -0.1129
      2 C2         -0.1245    1.3071   -1.7652 C.ar      1 <0>        -0.0963
      3 C3          0.4663    0.4578   -2.6831 C.ar      1 <0>        -0.1074
      4 C4          0.5120   -0.9006   -2.4394 C.ar      1 <0>        -0.1117
      5 C5         -0.0357   -1.4138   -1.2707 C.ar      1 <0>         0.1370
      6 C6         -0.6276   -0.5584   -0.3509 C.ar      1 <0>        -0.1061
      7 C7         -0.6659    0.8000   -0.5984 C.ar      1 <0>        -0.1047
      8 C8         -1.2231   -1.1110    0.9184 C.3       1 <0>        -0.1155
      9 N1          0.0086   -2.7898   -1.0209 N.am      1 <0>        -0.6664
     10 C9         -0.0833   -3.6635   -2.0430 C.2       1 <0>         0.5033
     11 O1         -0.1204   -3.2584   -3.1856 O.2       1 <0>        -0.5018
     12 C10        -0.1400   -5.1438   -1.7661 C.3       1 <0>         0.0769
     13 N2         -0.2372   -5.8741   -3.0324 N.am      1 <0>        -0.5640
     14 C11        -1.4278   -6.1398   -3.5411 C.2       1 <0>         0.5683
     15 O2         -2.4455   -5.7866   -2.9730 O.2       1 <0>        -0.4818
     16 C12        -1.4851   -6.8528   -4.7769 C.2       1 <0>        -0.2466
     17 C13        -2.5707   -7.2460   -5.5019 C.2       1 <0>         0.1319
     18 C14        -2.3989   -8.0481   -6.6539 C.2       1 <0>        -0.0230
     19 C15        -1.1922   -8.4118   -7.2259 C.2       1 <0>        -0.1076
     20 C16        -1.4868   -9.2025   -8.3411 C.2       1 <0>        -0.2066
     21 C17        -2.8343   -9.3090   -8.4338 C.2       1 <0>         0.0591
     22 N3         -3.4028   -8.6162   -7.4097 N.pl3     1 <0>        -0.3673
     23 C18        -4.7774   -8.4969   -7.1663 C.ar      1 <0>         0.0692
     24 C19        -5.2996   -8.8696   -5.9333 C.ar      1 <0>        -0.1193
     25 C20        -6.6550   -8.7542   -5.6873 C.ar      1 <0>        -0.1221
     26 C21        -7.4995   -8.2676   -6.6640 C.ar      1 <0>        -0.0705
     27 C22        -6.9850   -7.8897   -7.9068 C.ar      1 <0>        -0.1172
     28 C23        -5.6150   -8.0021   -8.1528 C.ar      1 <0>        -0.0695
     29 C24        -7.8851   -7.3694   -8.9538 C.2       1 <0>         0.5202
     30 O3         -9.0840   -7.2683   -8.7346 O.co2     1 <0>        -0.6790
     31 O4         -7.4323   -7.0392  -10.0408 O.co2     1 <0>        -0.6803
     32 S1          0.2543   -7.0895   -5.1146 S.3       1 <0>        -0.0304
     33 C25         0.8921   -6.2613   -3.6660 C.2       1 <0>         0.5372
     34 O5          2.0497   -6.0904   -3.3333 O.2       1 <0>        -0.4291
     35 H1          0.7222    3.2613   -1.6288 H         1 <0>         0.0690
     36 H2         -0.2189    2.9617   -3.1096 H         1 <0>         0.0664
     37 H3         -1.0559    3.2161   -1.5595 H         1 <0>         0.0654
     38 H4          0.8919    0.8575   -3.5916 H         1 <0>         0.1250
     39 H5          0.9728   -1.5633   -3.1569 H         1 <0>         0.1396
     40 H6         -1.1225    1.4663    0.1185 H         1 <0>         0.1253
     41 H7         -0.4624   -1.1286    1.6989 H         1 <0>         0.0711
     42 H8         -2.0537   -0.4800    1.2348 H         1 <0>         0.0720
     43 H9         -1.5838   -2.1239    0.7396 H         1 <0>         0.0644
     44 H10         0.1055   -3.1150   -0.1122 H         1 <0>         0.4117
     45 H11         0.7635   -5.4497   -1.2387 H         1 <0>         0.1295
     46 H12        -1.0123   -5.3653   -1.1511 H         1 <0>         0.1345
     47 H13        -3.5619   -6.9450   -5.1964 H         1 <0>         0.1579
     48 H14        -0.2079   -8.1367   -6.8767 H         1 <0>         0.1508
     49 H15        -0.7669   -9.6495   -9.0106 H         1 <0>         0.1511
     50 H16        -3.3699   -9.8583   -9.1939 H         1 <0>         0.1760
     51 H17        -4.6440   -9.2512   -5.1646 H         1 <0>         0.1225
     52 H18        -7.0545   -9.0462   -4.7273 H         1 <0>         0.1284
     53 H19        -8.5579   -8.1793   -6.4681 H         1 <0>         0.1365
     54 H20        -5.2103   -7.7081   -9.1100 H         1 <0>         0.1367
@<TRIPOS>BOND
     1    1    2 1
     2    1   35 1
     3    1   36 1
     4    1   37 1
     5    2    7 ar
     6    2    3 ar
     7    3    4 ar
     8    3   38 1
     9    4    5 ar
    10    4   39 1
    11    5    6 ar
    12    5    9 1
    13    6    7 ar
    14    6    8 1
    15    7   40 1
    16    8   41 1
    17    8   42 1
    18    8   43 1
    19    9   10 am
    20    9   44 1
    21   10   11 2
    22   10   12 1
    23   12   13 1
    24   12   45 1
    25   12   46 1
    26   13   33 am
    27   13   14 am
    28   14   15 2
    29   14   16 1
    30   16   17 2
    31   16   32 1
    32   17   18 1
    33   17   47 1
    34   18   22 1
    35   18   19 2
    36   19   20 1
    37   19   48 1
    38   20   21 2
    39   20   49 1
    40   21   22 1
    41   21   50 1
    42   22   23 1
    43   23   28 ar
    44   23   24 ar
    45   24   25 ar
    46   24   51 1
    47   25   26 ar
    48   25   52 1
    49   26   27 ar
    50   26   53 1
    51   27   28 ar
    52   27   29 1
    53   28   54 1
    54   29   30 2
    55   29   31 1
    56   32   33 1
    57   33   34 2
@<TRIPOS>MOLECULE
ZINC04356981
   36    37     0     0     0
SMALL
USER_CHARGES

@<TRIPOS>ATOM
      1 C1         -0.0187    1.5258    0.0104 C.3       1 <0>        -0.1375
      2 C2          0.0021   -0.0041    0.0020 C.3       1 <0>        -0.1065
      3 C3          0.7421   -0.5109    1.2415 C.3       1 <0>        -0.1422
      4 C4         -1.4333   -0.5336    0.0129 C.3       1 <0>         0.0480
      5 H1         -1.9435   -0.1821    0.9097 H         1 <0>         0.1062
      6 C5         -2.1622   -0.0344   -1.2080 C.2       1 <0>         0.5024
      7 O1         -2.4620   -0.8108   -2.0990 O.co2     1 <0>        -0.6630
      8 O2         -2.4521    1.1459   -1.3048 O.co2     1 <0>        -0.6727
      9 N1         -1.4134   -1.9985    0.0048 N.am      1 <0>        -0.4893
     10 C6         -1.9744   -2.6628    1.0002 C.2       1 <0>         0.5356
     11 O3         -2.5078   -2.0752    1.9244 O.2       1 <0>        -0.4818
     12 C7         -1.9373   -4.0886    0.9601 C.2       1 <0>        -0.2065
     13 C8         -2.4408   -5.0040    1.8583 C.2       1 <0>         0.0429
     14 C9         -2.2900   -6.3786    1.6183 C.2       1 <0>        -0.1317
     15 C10        -2.7874   -7.2830    2.5057 C.2       1 <0>        -0.0338
     16 C11        -2.6354   -8.6683    2.2638 C.2       1 <0>        -0.0008
     17 C12        -3.0927   -9.6904    3.0717 C.2       1 <0>        -0.1720
     18 C13        -2.7208  -10.8905    2.4460 C.2       1 <0>        -0.2186
     19 C14        -2.0676  -10.5633    1.3093 C.2       1 <0>        -0.0206
     20 O4         -2.0228   -9.2272    1.1993 O.3       1 <0>        -0.1646
     21 S1         -1.0602   -4.3637   -0.5730 S.3       1 <0>        -0.0022
     22 C15        -0.8266   -2.6508   -1.0232 C.2       1 <0>         0.2923
     23 S2         -0.0530   -2.0005   -2.4050 S.2       1 <0>        -0.2596
     24 H2          1.0039    1.9031    0.0027 H         1 <0>         0.0439
     25 H3         -0.5459    1.8868   -0.8726 H         1 <0>         0.0895
     26 H4         -0.5289    1.8773    0.9072 H         1 <0>         0.0453
     27 H5          0.5123   -0.3556   -0.8948 H         1 <0>         0.1008
     28 H6          0.7568   -1.6008    1.2356 H         1 <0>         0.0364
     29 H7          1.7647   -0.1336    1.2338 H         1 <0>         0.0565
     30 H8          0.2319   -0.1594    2.1383 H         1 <0>         0.0516
     31 H9         -2.9514   -4.6639    2.7471 H         1 <0>         0.1533
     32 H10        -1.7793   -6.7188    0.7295 H         1 <0>         0.1299
     33 H11        -3.2981   -6.9429    3.3944 H         1 <0>         0.1551
     34 H12        -3.6305   -9.5868    4.0025 H         1 <0>         0.1552
     35 H13        -2.9197  -11.8892    2.8060 H         1 <0>         0.1523
     36 H14        -1.6524  -11.2648    0.6009 H         1 <0>         0.2059
@<TRIPOS>BOND
     1    1    2 1
     2    1   24 1
     3    1   25 1
     4    1   26 1
     5    2    3 1
     6    2    4 1
     7    2   27 1
     8    3   28 1
     9    3   29 1
    10    3   30 1
    11    4    5 1
    12    4    6 1
    13    4    9 1
    14    6    7 2
    15    6    8 1
    16    9   22 1
    17    9   10 am
    18   10   11 2
    19   10   12 1
    20   12   13 2
    21   12   21 1
    22   13   14 1
    23   13   31 1
    24   14   15 2
    25   14   32 1
    26   15   16 1
    27   15   33 1
    28   16   20 1
    29   16   17 2
    30   17   18 1
    31   17   34 1
    32   18   19 2
    33   18   35 1
    34   19   20 1
    35   19   36 1
    36   21   22 1
    37   22   23 2
@<TRIPOS>MOLECULE
ZINC04356984
   36    37     0     0     0
SMALL
USER_CHARGES

@<TRIPOS>ATOM
      1 C1         -3.9782   -0.7126    0.5255 C.3       1 <0>        -0.1431
      2 C2         -2.8469   -0.0194   -0.2364 C.3       1 <0>        -0.0985
      3 C3         -2.9370    1.4924   -0.0187 C.3       1 <0>        -0.1333
      4 C4         -1.4989   -0.5292    0.2773 C.3       1 <0>         0.0440
      5 H1         -1.3777   -0.2456    1.3228 H         1 <0>         0.1184
      6 C5         -0.3878    0.0779   -0.5399 C.2       1 <0>         0.5003
      7 O1          0.1126    1.1357   -0.1979 O.co2     1 <0>        -0.6742
      8 O2          0.0108   -0.4889   -1.5431 O.co2     1 <0>        -0.6696
      9 N1         -1.4513   -1.9886    0.1585 N.am      1 <0>        -0.4838
     10 C6         -1.6874   -2.5546   -1.0122 C.2       1 <0>         0.5336
     11 O3         -1.9441   -1.8809   -1.9941 O.2       1 <0>        -0.4081
     12 C7         -1.6324   -3.9781   -1.0922 C.2       1 <0>        -0.2104
     13 C8         -1.8352   -4.8035   -2.1766 C.2       1 <0>         0.0498
     14 C9         -1.7302   -6.1952   -2.0285 C.2       1 <0>        -0.1356
     15 C10        -1.9306   -7.0107   -3.0999 C.2       1 <0>        -0.0295
     16 C11        -1.8248   -8.4132   -2.9506 C.2       1 <0>        -0.0022
     17 C12        -1.9963   -9.3529   -3.9477 C.2       1 <0>        -0.1701
     18 C13        -1.7993  -10.6081   -3.3514 C.2       1 <0>        -0.2185
     19 C14        -1.5222  -10.3920   -2.0466 C.2       1 <0>        -0.0204
     20 O4         -1.5324   -9.0718   -1.8098 O.3       1 <0>        -0.1649
     21 S1         -1.2280   -4.3991    0.5973 S.3       1 <0>         0.0216
     22 C15        -1.1611   -2.7361    1.2465 C.2       1 <0>         0.3056
     23 S2         -0.8189   -2.2203    2.8426 S.2       1 <0>        -0.3848
     24 H2         -4.9386   -0.3494    0.1596 H         1 <0>         0.0565
     25 H3         -3.9141   -1.7896    0.3705 H         1 <0>         0.0368
     26 H4         -3.8880   -0.4926    1.5893 H         1 <0>         0.0571
     27 H5         -2.9371   -0.2393   -1.3001 H         1 <0>         0.0935
     28 H6         -2.1923    1.9935   -0.6372 H         1 <0>         0.0691
     29 H7         -3.9323    1.8405   -0.2947 H         1 <0>         0.0495
     30 H8         -2.7504    1.7201    1.0308 H         1 <0>         0.0545
     31 H9         -2.0750   -4.3796   -3.1406 H         1 <0>         0.1564
     32 H10        -1.4904   -6.6192   -1.0646 H         1 <0>         0.1291
     33 H11        -2.1704   -6.5868   -4.0638 H         1 <0>         0.1565
     34 H12        -2.2354   -9.1599   -4.9831 H         1 <0>         0.1558
     35 H13        -1.8583  -11.5677   -3.8435 H         1 <0>         0.1526
     36 H14        -1.3204  -11.1588   -1.3134 H         1 <0>         0.2060
@<TRIPOS>BOND
     1    1    2 1
     2    1   24 1
     3    1   25 1
     4    1   26 1
     5    2    3 1
     6    2    4 1
     7    2   27 1
     8    3   28 1
     9    3   29 1
    10    3   30 1
    11    4    5 1
    12    4    6 1
    13    4    9 1
    14    6    7 2
    15    6    8 1
    16    9   22 1
    17    9   10 am
    18   10   11 2
    19   10   12 1
    20   12   13 2
    21   12   21 1
    22   13   14 1
    23   13   31 1
    24   14   15 2
    25   14   32 1
    26   15   16 1
    27   15   33 1
    28   16   20 1
    29   16   17 2
    30   17   18 1
    31   17   34 1
    32   18   19 2
    33   18   35 1
    34   19   20 1
    35   19   36 1
    36   21   22 1
    37   22   23 2
@<TRIPOS>MOLECULE
ZINC08451841
   54    57     0     0     0
SMALL
USER_CHARGES

@<TRIPOS>ATOM
      1 C1          1.5737   -3.1825    1.8647 C.3       1 <0>        -0.1091
      2 C2          0.6480   -2.8613    0.7197 C.ar      1 <0>        -0.0679
      3 C3          0.6460   -3.6543   -0.4110 C.ar      1 <0>        -0.1154
      4 C4         -0.2028   -3.3599   -1.4623 C.ar      1 <0>        -0.1146
      5 C5         -1.0523   -2.2715   -1.3850 C.ar      1 <0>        -0.1165
      6 C6         -1.0554   -1.4748   -0.2568 C.ar      1 <0>        -0.0898
      7 C7         -0.2080   -1.7709    0.8028 C.ar      1 <0>         0.1346
      8 N1         -0.2128   -0.9691    1.9495 N.am      1 <0>        -0.6726
      9 C8         -0.4055   -1.5271    3.1611 C.2       1 <0>         0.5029
     10 O1         -0.6426   -2.7131    3.2518 O.2       1 <0>        -0.4997
     11 C9         -0.3263   -0.6774    4.4032 C.3       1 <0>         0.0766
     12 N2         -0.5706   -1.5121    5.5822 N.am      1 <0>        -0.5633
     13 C10        -1.8061   -1.6678    6.0250 C.2       1 <0>         0.5686
     14 O2         -2.7448   -1.1279    5.4678 O.2       1 <0>        -0.4826
     15 C11        -2.0073   -2.4884    7.1762 C.2       1 <0>        -0.2467
     16 C12        -3.1645   -2.8057    7.8235 C.2       1 <0>         0.1306
     17 C13        -3.1202   -3.5356    9.0340 C.2       1 <0>        -0.0242
     18 C14        -1.9807   -3.8921    9.7341 C.2       1 <0>        -0.1088
     19 C15        -2.3973   -4.6011   10.8652 C.2       1 <0>        -0.2066
     20 C16        -3.7503   -4.6670   10.8425 C.2       1 <0>         0.0586
     21 N3         -4.2048   -4.0175    9.7364 N.pl3     1 <0>        -0.3668
     22 C17        -5.5489   -3.8668    9.3706 C.ar      1 <0>         0.0724
     23 C18        -6.0489   -2.6061    9.0659 C.ar      1 <0>        -0.1239
     24 C19        -7.3742   -2.4512    8.7043 C.ar      1 <0>        -0.1203
     25 C20        -8.2103   -3.5471    8.6429 C.ar      1 <0>        -0.0723
     26 C21        -7.7179   -4.8189    8.9468 C.ar      1 <0>        -0.1154
     27 C22        -6.3778   -4.9751    9.3072 C.ar      1 <0>        -0.0718
     28 C23        -8.6092   -5.9930    8.8826 C.2       1 <0>         0.5202
     29 O3         -9.7814   -5.8541    8.5629 O.co2     1 <0>        -0.6789
     30 O4         -8.1758   -7.1050    9.1490 O.co2     1 <0>        -0.6802
     31 S1         -0.3289   -2.9864    7.5373 S.3       1 <0>        -0.0312
     32 C24         0.4702   -2.1159    6.1976 C.2       1 <0>         0.5387
     33 O5          1.6522   -2.0755    5.9124 O.2       1 <0>        -0.4284
     34 C25        -1.9811   -0.2886   -0.1737 C.3       1 <0>        -0.1112
     35 H1          1.1238   -3.9533    2.4904 H         1 <0>         0.0819
     36 H2          2.5251   -3.5421    1.4728 H         1 <0>         0.0640
     37 H3          1.7417   -2.2844    2.4590 H         1 <0>         0.0565
     38 H4          1.3083   -4.5050   -0.4744 H         1 <0>         0.1254
     39 H5         -0.2020   -3.9812   -2.3457 H         1 <0>         0.1246
     40 H6         -1.7137   -2.0440   -2.2079 H         1 <0>         0.1259
     41 H7         -0.0775   -0.0117    1.8725 H         1 <0>         0.4087
     42 H8          0.6647   -0.2292    4.4743 H         1 <0>         0.1283
     43 H9         -1.0785    0.1099    4.3534 H         1 <0>         0.1326
     44 H10        -4.1149   -2.4997    7.4119 H         1 <0>         0.1577
     45 H11        -0.9614   -3.6654    9.4586 H         1 <0>         0.1524
     46 H12        -1.7537   -5.0220   11.6234 H         1 <0>         0.1512
     47 H13        -4.3679   -5.1521   11.5839 H         1 <0>         0.1762
     48 H14        -5.3997   -1.7443    9.1121 H         1 <0>         0.1228
     49 H15        -7.7565   -1.4688    8.4694 H         1 <0>         0.1286
     50 H16        -9.2451   -3.4219    8.3603 H         1 <0>         0.1365
     51 H17        -5.9900   -5.9559    9.5397 H         1 <0>         0.1369
     52 H18        -2.8943   -0.5762    0.3474 H         1 <0>         0.0733
     53 H19        -1.4904    0.5178    0.3713 H         1 <0>         0.0623
     54 H20        -2.2283    0.0506   -1.1796 H         1 <0>         0.0693
@<TRIPOS>BOND
     1    1    2 1
     2    1   35 1
     3    1   36 1
     4    1   37 1
     5    2    7 ar
     6    2    3 ar
     7    3    4 ar
     8    3   38 1
     9    4    5 ar
    10    4   39 1
    11    5    6 ar
    12    5   40 1
    13    6    7 ar
    14    6   34 1
    15    7    8 1
    16    8    9 am
    17    8   41 1
    18    9   10 2
    19    9   11 1
    20   11   12 1
    21   11   42 1
    22   11   43 1
    23   12   32 am
    24   12   13 am
    25   13   14 2
    26   13   15 1
    27   15   16 2
    28   15   31 1
    29   16   17 1
    30   16   44 1
    31   17   21 1
    32   17   18 2
    33   18   19 1
    34   18   45 1
    35   19   20 2
    36   19   46 1
    37   20   21 1
    38   20   47 1
    39   21   22 1
    40   22   27 ar
    41   22   23 ar
    42   23   24 ar
    43   23   48 1
    44   24   25 ar
    45   24   49 1
    46   25   26 ar
    47   25   50 1
    48   26   27 ar
    49   26   28 1
    50   27   51 1
    51   28   29 2
    52   28   30 1
    53   31   32 1
    54   32   33 2
    55   34   52 1
    56   34   53 1
    57   34   54 1
@<TRIPOS>MOLECULE
ZINC02141803
   53    56     0     0     0
SMALL
USER_CHARGES

@<TRIPOS>ATOM
      1 C1         -0.2055    1.3251   -0.1890 C.3       1 <0>        -0.1131
      2 C2         -0.1464   -0.1806   -0.1693 C.ar      1 <0>        -0.1013
      3 C3          0.6143   -0.8288    0.7864 C.ar      1 <0>        -0.1000
      4 C4          0.6706   -2.2086    0.8072 C.ar      1 <0>        -0.1146
      5 C5         -0.0381   -2.9451   -0.1329 C.ar      1 <0>         0.1404
      6 C6         -0.8014   -2.2912   -1.0912 C.ar      1 <0>        -0.1401
      7 C7         -0.8574   -0.9113   -1.1036 C.ar      1 <0>        -0.1021
      8 N1          0.0172   -4.3432   -0.1149 N.am      1 <0>        -0.6693
      9 C8          0.1399   -4.9977    1.0568 C.2       1 <0>         0.5027
     10 O1          0.1087   -4.3822    2.1014 O.2       1 <0>        -0.5003
     11 C9          0.3160   -6.4943    1.0691 C.3       1 <0>         0.0775
     12 N2          0.4252   -6.9619    2.4531 N.am      1 <0>        -0.5663
     13 C10         1.6148   -7.0310    3.0251 C.2       1 <0>         0.5695
     14 O2          2.6217   -6.7119    2.4189 O.2       1 <0>        -0.4850
     15 C11         1.6838   -7.4907    4.3754 C.2       1 <0>        -0.2410
     16 C12         2.7719   -7.6517    5.1832 C.2       1 <0>         0.1223
     17 C13         2.6076   -8.1261    6.5025 C.2       1 <0>        -0.0632
     18 C14         3.6182   -8.3294    7.4253 C.2       1 <0>        -0.1120
     19 C15         3.0098   -8.8015    8.5911 C.2       1 <0>        -0.2192
     20 C16         1.6674   -8.8699    8.3456 C.2       1 <0>         0.1215
     21 O3          1.4363   -8.4553    7.0869 O.3       1 <0>        -0.1421
     22 C17         0.6398   -9.3187    9.3054 C.ar      1 <0>        -0.0720
     23 C18         0.8060  -10.5216    9.9989 C.ar      1 <0>        -0.0951
     24 C19        -0.1539  -10.9426   10.8972 C.ar      1 <0>        -0.1381
     25 C20        -1.2842  -10.1808   11.1180 C.ar      1 <0>        -0.0739
     26 C21        -1.4642   -8.9759   10.4321 C.ar      1 <0>        -0.1192
     27 C22        -0.4963   -8.5415    9.5270 C.ar      1 <0>        -0.0238
     28 C23        -0.6801   -7.2411    8.7878 C.3       1 <0>        -0.1057
     29 C24        -2.6730   -8.1633   10.6690 C.2       1 <0>         0.5249
     30 O4         -2.9800   -7.8418   11.8083 O.co2     1 <0>        -0.6845
     31 O5         -3.3677   -7.8115    9.7262 O.co2     1 <0>        -0.6751
     32 S1         -0.0434   -7.7968    4.7198 S.3       1 <0>         0.0013
     33 C25        -0.6925   -7.3108    3.1280 C.2       1 <0>         0.5425
     34 O6         -1.8479   -7.2987    2.7474 O.2       1 <0>        -0.4154
     35 H1         -1.0284    1.6646    0.4400 H         1 <0>         0.0702
     36 H2          0.7327    1.7305    0.1898 H         1 <0>         0.0658
     37 H3         -0.3636    1.6692   -1.2111 H         1 <0>         0.0652
     38 H4          1.1652   -0.2554    1.5173 H         1 <0>         0.1258
     39 H5          1.2654   -2.7142    1.5535 H         1 <0>         0.1339
     40 H6         -1.3534   -2.8612   -1.8239 H         1 <0>         0.1261
     41 H7         -1.4541   -0.4022   -1.8460 H         1 <0>         0.1260
     42 H8         -0.0329   -4.8413   -0.9458 H         1 <0>         0.4126
     43 H9         -0.5441   -6.9653    0.5932 H         1 <0>         0.1306
     44 H10         1.2224   -6.7580    0.5239 H         1 <0>         0.1356
     45 H11         3.7588   -7.4162    4.8131 H         1 <0>         0.1815
     46 H12         4.6735   -8.1570    7.2737 H         1 <0>         0.1627
     47 H13         3.5072   -9.0632    9.5133 H         1 <0>         0.1599
     48 H14         1.6873  -11.1228    9.8310 H         1 <0>         0.1211
     49 H15        -0.0203  -11.8727   11.4296 H         1 <0>         0.1232
     50 H16        -2.0311  -10.5167   11.8221 H         1 <0>         0.1243
     51 H17        -1.1670   -7.4324    7.8316 H         1 <0>         0.0786
     52 H18        -1.2989   -6.5694    9.3827 H         1 <0>         0.0778
     53 H19         0.2927   -6.7810    8.6146 H         1 <0>         0.0490
@<TRIPOS>BOND
     1    1    2 1
     2    1   35 1
     3    1   36 1
     4    1   37 1
     5    2    7 ar
     6    2    3 ar
     7    3    4 ar
     8    3   38 1
     9    4    5 ar
    10    4   39 1
    11    5    6 ar
    12    5    8 1
    13    6    7 ar
    14    6   40 1
    15    7   41 1
    16    8    9 am
    17    8   42 1
    18    9   10 2
    19    9   11 1
    20   11   12 1
    21   11   43 1
    22   11   44 1
    23   12   33 am
    24   12   13 am
    25   13   14 2
    26   13   15 1
    27   15   16 2
    28   15   32 1
    29   16   17 1
    30   16   45 1
    31   17   21 1
    32   17   18 2
    33   18   19 1
    34   18   46 1
    35   19   20 2
    36   19   47 1
    37   20   21 1
    38   20   22 1
    39   22   27 ar
    40   22   23 ar
    41   23   24 ar
    42   23   48 1
    43   24   25 ar
    44   24   49 1
    45   25   26 ar
    46   25   50 1
    47   26   27 ar
    48   26   29 1
    49   27   28 1
    50   28   51 1
    51   28   52 1
    52   28   53 1
    53   29   30 2
    54   29   31 1
    55   32   33 1
    56   33   34 2
@<TRIPOS>MOLECULE
ZINC02434684
   38    41     0     0     0
SMALL
USER_CHARGES

@<TRIPOS>ATOM
      1 C1         -0.1382    1.1541   -1.7830 C.ar      1 <0>        -0.1142
      2 C2          1.0224    1.9047   -1.9138 C.ar      1 <0>        -0.0831
      3 C3          2.2501    1.2842   -1.7758 C.ar      1 <0>        -0.0756
      4 C4          2.2999   -0.0626   -1.5119 C.ar      1 <0>        -0.1394
      5 C5          1.1347   -0.8556   -1.3728 C.ar      1 <0>         0.0758
      6 C6         -0.1011   -0.1794   -1.5219 C.ar      1 <0>        -0.0435
      7 N1          1.3408   -2.1547   -1.1161 N.2       1 <0>        -0.4589
      8 C7          2.5478   -2.6729   -0.9983 C.2       1 <0>         0.1979
      9 S1          3.5975   -1.2501   -1.2620 S.3       1 <0>         0.0362
     10 C8          2.9315   -4.0633   -0.7207 C.2       1 <0>         0.0872
     11 C9          4.2218   -4.5352   -0.6052 C.2       1 <0>        -0.1694
     12 C10         4.1333   -5.9031   -0.3400 C.2       1 <0>        -0.1408
     13 C11         2.7863   -6.2181   -0.3030 C.2       1 <0>        -0.0063
     14 O1          2.0819   -5.0910   -0.5301 O.3       1 <0>        -0.0851
     15 C12         2.2425   -7.4997   -0.0629 C.2       1 <0>         0.0810
     16 C13         0.8921   -7.6580    0.0461 C.2       1 <0>        -0.2178
     17 C14        -0.1743   -6.6402    0.0728 C.2       1 <0>         0.5172
     18 O2          0.0750   -5.4512   -0.0072 O.2       1 <0>        -0.4067
     19 N2         -1.4150   -7.0830    0.1876 N.am      1 <0>        -0.5149
     20 C15        -1.6870   -8.4011    0.2760 C.2       1 <0>         0.2899
     21 S2         -3.2117   -9.1646    0.4290 S.2       1 <0>        -0.3317
     22 S3         -0.0717   -9.1569    0.1878 S.3       1 <0>         0.0466
     23 C16        -2.5188   -6.1203    0.2200 C.3       1 <0>         0.1074
     24 C17        -3.0097   -5.8591   -1.2054 C.3       1 <0>        -0.1911
     25 C18        -4.1451   -4.8688   -1.1721 C.2       1 <0>         0.5051
     26 O3         -4.5264   -4.4141   -0.1071 O.co2     1 <0>        -0.6929
     27 O4         -4.6824   -4.5223   -2.2103 O.co2     1 <0>        -0.6951
     28 H1         -1.0955    1.6432   -1.8869 H         1 <0>         0.1388
     29 H2          0.9667    2.9630   -2.1218 H         1 <0>         0.1410
     30 H3          3.1623    1.8538   -1.8750 H         1 <0>         0.1354
     31 H4         -1.0252   -0.7301   -1.4270 H         1 <0>         0.1424
     32 H5          5.1287   -3.9566   -0.7016 H         1 <0>         0.1644
     33 H6          4.9579   -6.5846   -0.1921 H         1 <0>         0.1699
     34 H7          2.8959   -8.3541    0.0344 H         1 <0>         0.1836
     35 H8         -3.3361   -6.5245    0.8173 H         1 <0>         0.1138
     36 H9         -2.1732   -5.1859    0.6622 H         1 <0>         0.1043
     37 H10        -2.1924   -5.4549   -1.8028 H         1 <0>         0.0612
     38 H11        -3.3553   -6.7934   -1.6476 H         1 <0>         0.0672
@<TRIPOS>BOND
     1    1    6 ar
     2    1    2 ar
     3    1   28 1
     4    2    3 ar
     5    2   29 1
     6    3    4 ar
     7    3   30 1
     8    4    9 1
     9    4    5 ar
    10    5    6 ar
    11    5    7 1
    12    6   31 1
    13    7    8 2
    14    8    9 1
    15    8   10 1
    16   10   14 1
    17   10   11 2
    18   11   12 1
    19   11   32 1
    20   12   13 2
    21   12   33 1
    22   13   14 1
    23   13   15 1
    24   15   16 2
    25   15   34 1
    26   16   22 1
    27   16   17 1
    28   17   18 2
    29   17   19 am
    30   19   20 1
    31   19   23 1
    32   20   21 2
    33   20   22 1
    34   23   24 1
    35   23   35 1
    36   23   36 1
    37   24   25 1
    38   24   37 1
    39   24   38 1
    40   25   26 2
    41   25   27 1
@<TRIPOS>MOLECULE
ZINC02415873
   41    44     0     0     0
SMALL
USER_CHARGES

@<TRIPOS>ATOM
      1 C1         -0.1382    1.1541   -1.7830 C.ar      1 <0>        -0.1136
      2 C2          1.0224    1.9047   -1.9138 C.ar      1 <0>        -0.0825
      3 C3          2.2501    1.2842   -1.7758 C.ar      1 <0>        -0.0751
      4 C4          2.2999   -0.0626   -1.5119 C.ar      1 <0>        -0.1393
      5 C5          1.1347   -0.8556   -1.3728 C.ar      1 <0>         0.0753
      6 C6         -0.1011   -0.1794   -1.5219 C.ar      1 <0>        -0.0440
      7 N1          1.3408   -2.1547   -1.1161 N.2       1 <0>        -0.4594
      8 C7          2.5478   -2.6729   -0.9983 C.2       1 <0>         0.1967
      9 S1          3.5975   -1.2501   -1.2620 S.3       1 <0>         0.0386
     10 C8          2.9315   -4.0633   -0.7207 C.2       1 <0>         0.0897
     11 C9          4.2218   -4.5352   -0.6052 C.2       1 <0>        -0.1700
     12 C10         4.1333   -5.9031   -0.3400 C.2       1 <0>        -0.1377
     13 C11         2.7863   -6.2181   -0.3030 C.2       1 <0>        -0.0093
     14 O1          2.0819   -5.0910   -0.5301 O.3       1 <0>        -0.0855
     15 C12         2.2425   -7.4997   -0.0629 C.2       1 <0>         0.0871
     16 C13         0.8921   -7.6580    0.0461 C.2       1 <0>        -0.2229
     17 C14        -0.1743   -6.6402    0.0728 C.2       1 <0>         0.5201
     18 O2          0.0750   -5.4512   -0.0072 O.2       1 <0>        -0.4086
     19 N2         -1.4150   -7.0830    0.1876 N.am      1 <0>        -0.5138
     20 C15        -1.6870   -8.4011    0.2760 C.2       1 <0>         0.2872
     21 S2         -3.2117   -9.1646    0.4290 S.2       1 <0>        -0.3286
     22 S3         -0.0717   -9.1569    0.1878 S.3       1 <0>         0.0574
     23 C16        -2.5188   -6.1203    0.2200 C.3       1 <0>         0.0809
     24 C17        -3.0097   -5.8591   -1.2054 C.3       1 <0>        -0.0995
     25 C18        -4.1624   -4.8537   -1.1716 C.3       1 <0>        -0.1763
     26 C19        -4.6459   -4.5963   -2.5756 C.2       1 <0>         0.4930
     27 O3         -4.1174   -5.1645   -3.5160 O.co2     1 <0>        -0.6969
     28 O4         -5.5655   -3.8200   -2.7710 O.co2     1 <0>        -0.7049
     29 H1         -1.0955    1.6432   -1.8869 H         1 <0>         0.1391
     30 H2          0.9667    2.9630   -2.1218 H         1 <0>         0.1414
     31 H3          3.1623    1.8538   -1.8750 H         1 <0>         0.1358
     32 H4         -1.0252   -0.7301   -1.4270 H         1 <0>         0.1411
     33 H5          5.1287   -3.9566   -0.7016 H         1 <0>         0.1649
     34 H6          4.9579   -6.5846   -0.1921 H         1 <0>         0.1705
     35 H7          2.8959   -8.3541    0.0344 H         1 <0>         0.1843
     36 H8         -3.3361   -6.5245    0.8173 H         1 <0>         0.1084
     37 H9         -2.1732   -5.1859    0.6622 H         1 <0>         0.0996
     38 H10        -2.1924   -5.4549   -1.8028 H         1 <0>         0.0649
     39 H11        -3.3553   -6.7934   -1.6476 H         1 <0>         0.0708
     40 H12        -4.9797   -5.2579   -0.5743 H         1 <0>         0.0627
     41 H13        -3.8168   -3.9193   -0.7294 H         1 <0>         0.0585
@<TRIPOS>BOND
     1    1    6 ar
     2    1    2 ar
     3    1   29 1
     4    2    3 ar
     5    2   30 1
     6    3    4 ar
     7    3   31 1
     8    4    9 1
     9    4    5 ar
    10    5    6 ar
    11    5    7 1
    12    6   32 1
    13    7    8 2
    14    8    9 1
    15    8   10 1
    16   10   14 1
    17   10   11 2
    18   11   12 1
    19   11   33 1
    20   12   13 2
    21   12   34 1
    22   13   14 1
    23   13   15 1
    24   15   16 2
    25   15   35 1
    26   16   22 1
    27   16   17 1
    28   17   18 2
    29   17   19 am
    30   19   20 1
    31   19   23 1
    32   20   21 2
    33   20   22 1
    34   23   24 1
    35   23   36 1
    36   23   37 1
    37   24   25 1
    38   24   38 1
    39   24   39 1
    40   25   26 1
    41   25   40 1
    42   25   41 1
    43   26   27 2
    44   26   28 1
