@<TRIPOS>MOLECULE
ZINC01665750
   28    30     0     0     0
SMALL
USER_CHARGES
2,7-dinitrophenanthrene-9,10-dione
@<TRIPOS>ATOM
      1 C1          3.7891    3.3899   -0.0015 C.ar      1 <0>        -0.0180
      2 C2          3.6699    2.0942    0.4683 C.ar      1 <0>        -0.0985
      3 C3          2.4268    1.4701    0.4767 C.ar      1 <0>         0.0272
      4 C4          1.3013    2.1715    0.0013 C.ar      1 <0>        -0.1457
      5 C5          1.4373    3.4754   -0.4693 C.ar      1 <0>         0.0080
      6 C6          2.6817    4.0769   -0.4680 C.ar      1 <0>        -0.0390
      7 N1          2.8307    5.4624   -0.9672 N.pl3     1 <0>         0.0217
      8 O1          1.8581    6.0696   -1.3780 O.2       1 <0>        -0.1424
      9 O2          3.9260    5.9951   -0.9673 O.3       1 <0>        -0.1407
     10 C7         -0.0184    1.5037    0.0103 C.2       1 <0>         0.3761
     11 O3         -1.0566    2.1323    0.0187 O.2       1 <0>        -0.3614
     12 C8          0.0021   -0.0041    0.0020 C.2       1 <0>         0.3761
     13 O4         -0.8383   -0.6549   -0.5839 O.2       1 <0>        -0.3613
     14 C9          1.1063   -0.6431    0.7504 C.ar      1 <0>        -0.1457
     15 C10         2.2898    0.0858    0.9795 C.ar      1 <0>         0.0272
     16 C11         3.3297   -0.5112    1.6848 C.ar      1 <0>        -0.0985
     17 C12         3.1943   -1.8068    2.1504 C.ar      1 <0>        -0.0180
     18 C13         2.0305   -2.5210    1.9231 C.ar      1 <0>        -0.0389
     19 C14         0.9847   -1.9468    1.2254 C.ar      1 <0>         0.0080
     20 N2          1.9058   -3.9063    2.4293 N.pl3     1 <0>         0.0216
     21 O5          0.8832   -4.5375    2.2307 O.2       1 <0>        -0.1425
     22 O6          2.8257   -4.4151    3.0445 O.3       1 <0>        -0.1407
     23 H1          4.7565    3.8701   -0.0052 H         1 <0>         0.1717
     24 H2          4.5412    1.5680    0.8294 H         1 <0>         0.1672
     25 H3          0.5746    4.0138   -0.8332 H         1 <0>         0.1739
     26 H4          4.2422    0.0365    1.8686 H         1 <0>         0.1672
     27 H5          4.0048   -2.2656    2.6971 H         1 <0>         0.1717
     28 H6          0.0779   -2.5063    1.0491 H         1 <0>         0.1739
@<TRIPOS>BOND
     1    1    6 ar
     2    1    2 ar
     3    1   23 1
     4    2    3 ar
     5    2   24 1
     6    3   15 1
     7    3    4 ar
     8    4    5 ar
     9    4   10 1
    10    5    6 ar
    11    5   25 1
    12    6    7 1
    13    7    8 2
    14    7    9 1
    15   10   11 2
    16   10   12 1
    17   12   13 2
    18   12   14 1
    19   14   19 ar
    20   14   15 ar
    21   15   16 ar
    22   16   17 ar
    23   16   26 1
    24   17   18 ar
    25   17   27 1
    26   18   19 ar
    27   18   20 1
    28   19   28 1
    29   20   21 2
    30   20   22 1
@<TRIPOS>MOLECULE
ZINC01713558
   26    28     0     0     0
SMALL
USER_CHARGES

@<TRIPOS>ATOM
      1 C1         -0.0167    1.3783    0.0096 C.ar      1 <0>        -0.0786
      2 C2          1.1645    2.1013    0.0022 C.ar      1 <0>        -0.1302
      3 C3          2.3819    1.4487   -0.0130 C.ar      1 <0>        -0.0507
      4 C4          2.4175    0.0556   -0.0203 C.ar      1 <0>        -0.1674
      5 C5          1.2174   -0.6824   -0.0137 C.ar      1 <0>         0.0124
      6 C6          0.0021   -0.0041    0.0020 C.ar      1 <0>        -0.1216
      7 C7          1.2459   -2.1606   -0.0242 C.ar      1 <0>        -0.0753
      8 C8          0.0834   -2.8820   -0.2829 C.ar      1 <0>        -0.0550
      9 C9          0.1128   -4.2626   -0.2908 C.ar      1 <0>        -0.1675
     10 C10         1.2976   -4.9471   -0.0415 C.ar      1 <0>         0.2208
     11 C11         2.4685   -4.2441    0.2176 C.ar      1 <0>        -0.1356
     12 C12         2.4472   -2.8527    0.2265 C.ar      1 <0>        -0.1018
     13 C13         3.6794   -2.0792    0.4971 C.2       1 <0>         0.3713
     14 O1          4.6135   -2.5524    1.1107 O.2       1 <0>        -0.3900
     15 C14         3.7063   -0.6685   -0.0347 C.2       1 <0>         0.3744
     16 O2          4.7259   -0.1578   -0.4505 O.2       1 <0>        -0.3935
     17 N1          1.3109   -6.3422   -0.0511 N.pl3     1 <0>        -0.8695
     18 H1         -0.9623    1.8998    0.0260 H         1 <0>         0.1336
     19 H2          1.1336    3.1809    0.0080 H         1 <0>         0.1347
     20 H3          3.3014    2.0153   -0.0195 H         1 <0>         0.1377
     21 H4         -0.9255   -0.5572    0.0086 H         1 <0>         0.1365
     22 H5         -0.8426   -2.3612   -0.4772 H         1 <0>         0.1380
     23 H6         -0.7926   -4.8160   -0.4921 H         1 <0>         0.1329
     24 H7          3.3891   -4.7746    0.4115 H         1 <0>         0.1376
     25 H8          0.4943   -6.8338   -0.2315 H         1 <0>         0.4035
     26 H9          2.1366   -6.8206    0.1226 H         1 <0>         0.4033
@<TRIPOS>BOND
     1    1    6 ar
     2    1    2 ar
     3    1   18 1
     4    2    3 ar
     5    2   19 1
     6    3    4 ar
     7    3   20 1
     8    4   15 1
     9    4    5 ar
    10    5    6 ar
    11    5    7 1
    12    6   21 1
    13    7   12 ar
    14    7    8 ar
    15    8    9 ar
    16    8   22 1
    17    9   10 ar
    18    9   23 1
    19   10   11 ar
    20   10   17 1
    21   11   12 ar
    22   11   24 1
    23   12   13 1
    24   13   14 2
    25   13   15 1
    26   15   16 2
    27   17   25 1
    28   17   26 1
@<TRIPOS>MOLECULE
ZINC01686937
   26    28     0     0     0
SMALL
USER_CHARGES
2-nitrophenanthrene-9,10-dione
@<TRIPOS>ATOM
      1 C1          1.2096   -0.6783   -0.0105 C.ar      1 <0>        -0.0834
      2 C2          2.4067    0.0170   -0.0158 C.ar      1 <0>        -0.1061
      3 C3          2.4109    1.3989   -0.0104 C.ar      1 <0>        -0.0540
      4 C4          1.2025    2.0921    0.0018 C.ar      1 <0>        -0.1442
      5 C5         -0.0168    1.3871    0.0097 C.ar      1 <0>        -0.0312
      6 C6          0.0021   -0.0041    0.0020 C.ar      1 <0>        -0.0970
      7 C7         -1.3039    2.1156    0.0320 C.ar      1 <0>         0.0505
      8 C8         -2.4893    1.4397    0.2990 C.ar      1 <0>        -0.1125
      9 C9         -3.6888    2.1282    0.3147 C.ar      1 <0>        -0.0166
     10 C10        -3.7254    3.4891    0.0635 C.ar      1 <0>        -0.0522
     11 C11        -2.5599    4.1799   -0.2087 C.ar      1 <0>         0.0099
     12 C12        -1.3442    3.5000   -0.2291 C.ar      1 <0>        -0.1593
     13 C13        -0.0816    4.2142   -0.5176 C.2       1 <0>         0.3745
     14 O1         -0.0605    5.2569   -1.1384 O.2       1 <0>        -0.3736
     15 C14         1.1779    3.5709    0.0055 C.2       1 <0>         0.3738
     16 O2          2.1163    4.2280    0.4065 O.2       1 <0>        -0.3778
     17 N1         -5.0193    4.2076    0.0862 N.pl3     1 <0>         0.0253
     18 O3         -5.0550    5.4049   -0.1348 O.2       1 <0>        -0.1488
     19 O4         -6.0483    3.6016    0.3259 O.3       1 <0>        -0.1471
     20 H1          1.2188   -1.7582   -0.0167 H         1 <0>         0.1409
     21 H2          3.3419   -0.5232   -0.0245 H         1 <0>         0.1418
     22 H3          3.3463    1.9389   -0.0157 H         1 <0>         0.1446
     23 H4         -0.9256   -0.5571    0.0055 H         1 <0>         0.1423
     24 H5         -2.4729    0.3781    0.4965 H         1 <0>         0.1633
     25 H6         -4.6062    1.5987    0.5255 H         1 <0>         0.1672
     26 H7         -2.5914    5.2415   -0.4051 H         1 <0>         0.1697
@<TRIPOS>BOND
     1    1    6 ar
     2    1    2 ar
     3    1   20 1
     4    2    3 ar
     5    2   21 1
     6    3    4 ar
     7    3   22 1
     8    4   15 1
     9    4    5 ar
    10    5    6 ar
    11    5    7 1
    12    6   23 1
    13    7   12 ar
    14    7    8 ar
    15    8    9 ar
    16    8   24 1
    17    9   10 ar
    18    9   25 1
    19   10   11 ar
    20   10   17 1
    21   11   12 ar
    22   11   26 1
    23   12   13 1
    24   13   14 2
    25   13   15 1
    26   15   16 2
    27   17   18 2
    28   17   19 1
@<TRIPOS>MOLECULE
ZINC01706117
   26    28     0     0     0
SMALL
USER_CHARGES
4-nitrophenanthrene-9,10-dione
@<TRIPOS>ATOM
      1 C1         -1.4118    1.8314   -0.5667 C.ar      1 <0>        -0.0721
      2 C2         -0.2334    1.1348   -0.7735 C.ar      1 <0>        -0.1032
      3 C3          0.9773    1.8009   -0.7889 C.ar      1 <0>        -0.0544
      4 C4          1.0083    3.1794   -0.5896 C.ar      1 <0>        -0.1401
      5 C5         -0.1884    3.8894   -0.3716 C.ar      1 <0>        -0.0435
      6 C6         -1.3963    3.1990   -0.3609 C.ar      1 <0>        -0.1167
      7 C7         -0.1632    5.3525   -0.1559 C.ar      1 <0>         0.0551
      8 C8          1.0035    6.0941   -0.4272 C.ar      1 <0>        -0.1512
      9 C9          1.0198    7.4716   -0.2229 C.ar      1 <0>        -0.0145
     10 C10        -0.1142    8.1067    0.2479 C.ar      1 <0>        -0.1094
     11 C11        -1.2613    7.3804    0.5165 C.ar      1 <0>        -0.0315
     12 C12        -1.2926    6.0115    0.3181 C.ar      1 <0>        -0.0299
     13 N1         -2.5274    5.2490    0.6095 N.pl3     1 <0>         0.0244
     14 O1         -3.5378    5.4554   -0.0386 O.2       1 <0>        -0.1297
     15 O2         -2.5331    4.4153    1.4974 O.3       1 <0>        -0.1332
     16 C13         2.2032    5.3883   -0.9276 C.2       1 <0>         0.3774
     17 O3          3.0669    5.9588   -1.5613 O.2       1 <0>        -0.3745
     18 C14         2.2897    3.9180   -0.6045 C.2       1 <0>         0.3731
     19 O4          3.3484    3.3728   -0.3701 O.2       1 <0>        -0.3776
     20 H1         -2.3525    1.3008   -0.5621 H         1 <0>         0.1434
     21 H2         -0.2609    0.0663   -0.9281 H         1 <0>         0.1443
     22 H3          1.8947    1.2556   -0.9542 H         1 <0>         0.1465
     23 H4         -2.3215    3.7313   -0.1966 H         1 <0>         0.1377
     24 H5          1.9135    8.0408   -0.4318 H         1 <0>         0.1605
     25 H6         -0.1049    9.1749    0.4071 H         1 <0>         0.1629
     26 H7         -2.1410    7.8874    0.8845 H         1 <0>         0.1562
@<TRIPOS>BOND
     1    1    6 ar
     2    1    2 ar
     3    1   20 1
     4    2    3 ar
     5    2   21 1
     6    3    4 ar
     7    3   22 1
     8    4   18 1
     9    4    5 ar
    10    5    6 ar
    11    5    7 1
    12    6   23 1
    13    7   12 ar
    14    7    8 ar
    15    8    9 ar
    16    8   16 1
    17    9   10 ar
    18    9   24 1
    19   10   11 ar
    20   10   25 1
    21   11   12 ar
    22   11   26 1
    23   12   13 1
    24   13   14 2
    25   13   15 1
    26   16   17 2
    27   16   18 1
    28   18   19 2
@<TRIPOS>MOLECULE
ZINC01593117
   25    26     0     0     0
SMALL
USER_CHARGES
4-ethoxynaphthalene-1,2-dione
@<TRIPOS>ATOM
      1 C1          2.4616    8.0165    0.0176 C.3       1 <0>        -0.1542
      2 C2          1.0474    7.4327    0.0277 C.3       1 <0>         0.0465
      3 O1          1.1212    6.0056    0.0208 O.3       1 <0>        -0.2958
      4 C3         -0.0490    5.3311    0.0283 C.2       1 <0>         0.2421
      5 C4         -1.2167    6.0276    0.0432 C.2       1 <0>        -0.3649
      6 C5         -2.4613    5.3802    0.0520 C.2       1 <0>         0.3709
      7 O2         -3.4893    6.0308    0.0644 O.2       1 <0>        -0.4141
      8 C6         -2.5171    3.8844    0.0455 C.2       1 <0>         0.3560
      9 O3         -3.5804    3.3004    0.0533 O.2       1 <0>        -0.3847
     10 C7         -1.2410    3.1382    0.0298 C.ar      1 <0>        -0.1326
     11 C8         -0.0301    3.8581    0.0217 C.ar      1 <0>        -0.0396
     12 C9          1.1767    3.1652    0.0069 C.ar      1 <0>        -0.0789
     13 C10         1.1767    1.7791    0.0004 C.ar      1 <0>        -0.0921
     14 C11        -0.0126    1.0758    0.0080 C.ar      1 <0>        -0.1023
     15 C12        -1.2248    1.7489    0.0174 C.ar      1 <0>        -0.0585
     16 H1          3.0014    7.6763    0.9013 H         1 <0>         0.0697
     17 H2          2.9855    7.6841   -0.8785 H         1 <0>         0.0697
     18 H3          2.4053    9.1051    0.0229 H         1 <0>         0.0853
     19 H4          0.5076    7.7729   -0.8560 H         1 <0>         0.0758
     20 H5          0.5235    7.7651    0.9239 H         1 <0>         0.0759
     21 H6         -1.1852    7.1072    0.0479 H         1 <0>         0.1531
     22 H7          2.1113    3.7064    0.0002 H         1 <0>         0.1457
     23 H8          2.1147    1.2440   -0.0111 H         1 <0>         0.1401
     24 H9          0.0021   -0.0041    0.0020 H         1 <0>         0.1408
     25 H10        -2.1524    1.1956    0.0188 H         1 <0>         0.1462
@<TRIPOS>BOND
     1    1    2 1
     2    1   16 1
     3    1   17 1
     4    1   18 1
     5    2    3 1
     6    2   19 1
     7    2   20 1
     8    3    4 1
     9    4   11 1
    10    4    5 2
    11    5    6 1
    12    5   21 1
    13    6    7 2
    14    6    8 1
    15    8    9 2
    16    8   10 1
    17   10   15 ar
    18   10   11 ar
    19   11   12 ar
    20   12   13 ar
    21   12   22 1
    22   13   14 ar
    23   13   23 1
    24   14   15 ar
    25   14   24 1
    26   15   25 1
@<TRIPOS>MOLECULE
ZINC01763283
   26    27     0     0     0
SMALL
USER_CHARGES
4-allyloxynaphthalene-1,2-dione
@<TRIPOS>ATOM
      1 C1          2.7325    9.0027   -0.7827 C.2       1 <0>        -0.1583
      2 C2          2.4403    8.0078    0.0178 C.2       1 <0>        -0.1663
      3 C3          1.0474    7.4327    0.0277 C.3       1 <0>         0.0806
      4 O1          1.1212    6.0056    0.0208 O.3       1 <0>        -0.2911
      5 C4         -0.0490    5.3311    0.0283 C.2       1 <0>         0.2423
      6 C5         -1.2167    6.0276    0.0432 C.2       1 <0>        -0.3649
      7 C6         -2.4613    5.3802    0.0520 C.2       1 <0>         0.3711
      8 O2         -3.4893    6.0308    0.0644 O.2       1 <0>        -0.4135
      9 C7         -2.5171    3.8844    0.0455 C.2       1 <0>         0.3561
     10 O3         -3.5804    3.3004    0.0533 O.2       1 <0>        -0.3844
     11 C8         -1.2410    3.1382    0.0298 C.ar      1 <0>        -0.1322
     12 C9         -0.0301    3.8581    0.0217 C.ar      1 <0>        -0.0395
     13 C10         1.1767    3.1652    0.0069 C.ar      1 <0>        -0.0785
     14 C11         1.1767    1.7791    0.0004 C.ar      1 <0>        -0.0921
     15 C12        -0.0126    1.0758    0.0080 C.ar      1 <0>        -0.1019
     16 C13        -1.2248    1.7489    0.0174 C.ar      1 <0>        -0.0584
     17 H1          3.7308    9.4148   -0.7898 H         1 <0>         0.1122
     18 H2          1.9751    9.4109   -1.4356 H         1 <0>         0.1022
     19 H3          3.1977    7.5996    0.6706 H         1 <0>         0.1237
     20 H4          0.5076    7.7729   -0.8560 H         1 <0>         0.0809
     21 H5          0.5235    7.7651    0.9239 H         1 <0>         0.0858
     22 H6         -1.1852    7.1072    0.0479 H         1 <0>         0.1529
     23 H7          2.1113    3.7064    0.0002 H         1 <0>         0.1459
     24 H8          2.1147    1.2440   -0.0111 H         1 <0>         0.1402
     25 H9          0.0021   -0.0041    0.0020 H         1 <0>         0.1409
     26 H10        -2.1524    1.1956    0.0188 H         1 <0>         0.1463
@<TRIPOS>BOND
     1    1    2 2
     2    1   17 1
     3    1   18 1
     4    2    3 1
     5    2   19 1
     6    3    4 1
     7    3   20 1
     8    3   21 1
     9    4    5 1
    10    5   12 1
    11    5    6 2
    12    6    7 1
    13    6   22 1
    14    7    8 2
    15    7    9 1
    16    9   10 2
    17    9   11 1
    18   11   16 ar
    19   11   12 ar
    20   12   13 ar
    21   13   14 ar
    22   13   23 1
    23   14   15 ar
    24   14   24 1
    25   15   16 ar
    26   15   25 1
    27   16   26 1
@<TRIPOS>MOLECULE
ZINC01702579
   19    20     0     0     0
SMALL
USER_CHARGES
7-hydroxynaphthalene-1,2-dione
@<TRIPOS>ATOM
      1 C1          1.1662    3.1803    0.0071 C.ar      1 <0>        -0.1175
      2 C2         -0.0324    3.8690    0.0217 C.ar      1 <0>        -0.0770
      3 C3         -1.2395    3.1676    0.0299 C.ar      1 <0>        -0.0570
      4 C4         -1.2216    1.7568    0.0173 C.ar      1 <0>        -0.1307
      5 C5         -0.0126    1.0758    0.0080 C.ar      1 <0>        -0.0854
      6 C6          1.1832    1.7929    0.0004 C.ar      1 <0>         0.1176
      7 O1          2.3682    1.1313   -0.0140 O.3       1 <0>        -0.4923
      8 C7         -2.5061    1.0252    0.0320 C.2       1 <0>         0.3575
      9 O2         -2.5347   -0.1877    0.0266 O.2       1 <0>        -0.3827
     10 C8         -3.7711    1.8266    0.0473 C.2       1 <0>         0.3525
     11 O3         -4.8508    1.2683    0.0542 O.2       1 <0>        -0.3923
     12 C9         -3.6981    3.2369    0.0532 C.2       1 <0>        -0.2237
     13 C10        -2.5165    3.8861    0.0454 C.2       1 <0>        -0.0069
     14 H1          2.0976    3.7271    0.0004 H         1 <0>         0.1433
     15 H2         -0.0350    4.9490    0.0264 H         1 <0>         0.1461
     16 H3          0.0021   -0.0041    0.0020 H         1 <0>         0.1475
     17 H4          2.7034    0.9440   -0.9015 H         1 <0>         0.3990
     18 H5         -4.6131    3.8106    0.0645 H         1 <0>         0.1536
     19 H6         -2.5110    4.9661    0.0503 H         1 <0>         0.1484
@<TRIPOS>BOND
     1    1    6 ar
     2    1    2 ar
     3    1   14 1
     4    2    3 ar
     5    2   15 1
     6    3   13 1
     7    3    4 ar
     8    4    5 ar
     9    4    8 1
    10    5    6 ar
    11    5   16 1
    12    6    7 1
    13    7   17 1
    14    8    9 2
    15    8   10 1
    16   10   11 2
    17   10   12 1
    18   12   13 2
    19   12   18 1
    20   13   19 1
@<TRIPOS>MOLECULE
ZINC13862833
   40    42     0     0     0
SMALL
USER_CHARGES
N-(9,10-dioxo-2-phenanthryl)-2,2-dimethyl-propanamide
@<TRIPOS>ATOM
      1 C1         -6.2951    7.3351   -1.3946 C.3       1 <0>        -0.1316
      2 C2         -6.3821    6.0947   -0.5032 C.3       1 <0>        -0.0831
      3 C3         -7.5592    5.2261   -0.9514 C.3       1 <0>        -0.1437
      4 C4         -6.5899    6.5247    0.9503 C.3       1 <0>        -0.1438
      5 C5         -5.1035    5.3048   -0.6155 C.2       1 <0>         0.5209
      6 O1         -4.2107    5.6956   -1.3374 O.2       1 <0>        -0.5070
      7 N1         -4.9523    4.1642    0.0863 N.am      1 <0>        -0.6735
      8 C6         -3.7277    3.4899    0.0689 C.ar      1 <0>         0.1494
      9 C7         -3.6990    2.1019    0.1464 C.ar      1 <0>        -0.1121
     10 C8         -2.4972    1.4214    0.1308 C.ar      1 <0>        -0.0865
     11 C9         -1.2991    2.1234    0.0421 C.ar      1 <0>        -0.0268
     12 C10        -1.3269    3.5303   -0.0417 C.ar      1 <0>        -0.1331
     13 C11        -2.5422    4.2083   -0.0253 C.ar      1 <0>        -0.0591
     14 C12        -0.0493    4.2701   -0.1412 C.2       1 <0>         0.3700
     15 O2          0.0130    5.3834   -0.6203 O.2       1 <0>        -0.3824
     16 C13         1.1708    3.5592    0.3882 C.2       1 <0>         0.3740
     17 O3          2.0731    4.1552    0.9394 O.2       1 <0>        -0.3904
     18 C14         1.2028    2.0936    0.1967 C.ar      1 <0>        -0.1589
     19 C15        -0.0103    1.3987    0.0227 C.ar      1 <0>        -0.0018
     20 C16         0.0164    0.0196   -0.1623 C.ar      1 <0>        -0.1137
     21 C17         1.2247   -0.6524   -0.1709 C.ar      1 <0>        -0.0810
     22 C18         2.4156    0.0326    0.0029 C.ar      1 <0>        -0.1230
     23 C19         2.4125    1.4018    0.1864 C.ar      1 <0>        -0.0526
     24 H1         -6.1471    7.0287   -2.4302 H         1 <0>         0.0645
     25 H2         -7.2199    7.9064   -1.3134 H         1 <0>         0.0668
     26 H3         -5.4565    7.9539   -1.0754 H         1 <0>         0.0647
     27 H4         -7.6211    4.3423   -0.3163 H         1 <0>         0.0597
     28 H5         -8.4839    5.7974   -0.8702 H         1 <0>         0.0744
     29 H6         -7.4111    4.9197   -1.9869 H         1 <0>         0.0639
     30 H7         -5.7513    7.1435    1.2696 H         1 <0>         0.0637
     31 H8         -7.5146    7.0960    1.0315 H         1 <0>         0.0745
     32 H9         -6.6518    5.6410    1.5854 H         1 <0>         0.0605
     33 H10        -5.6930    3.8111    0.6035 H         1 <0>         0.4143
     34 H11        -4.6250    1.5508    0.2190 H         1 <0>         0.1391
     35 H12        -2.4871    0.3431    0.1909 H         1 <0>         0.1435
     36 H13        -2.5636    5.2864   -0.0859 H         1 <0>         0.1505
     37 H14        -0.9060   -0.5253   -0.2993 H         1 <0>         0.1381
     38 H15         1.2399   -1.7227   -0.3151 H         1 <0>         0.1354
     39 H16         3.3515   -0.5063   -0.0054 H         1 <0>         0.1365
     40 H17         3.3429    1.9335    0.3209 H         1 <0>         0.1396
@<TRIPOS>BOND
     1    1    2 1
     2    1   24 1
     3    1   25 1
     4    1   26 1
     5    2    3 1
     6    2    4 1
     7    2    5 1
     8    3   27 1
     9    3   28 1
    10    3   29 1
    11    4   30 1
    12    4   31 1
    13    4   32 1
    14    5    6 2
    15    5    7 am
    16    7    8 1
    17    7   33 1
    18    8   13 ar
    19    8    9 ar
    20    9   10 ar
    21    9   34 1
    22   10   11 ar
    23   10   35 1
    24   11   19 1
    25   11   12 ar
    26   12   13 ar
    27   12   14 1
    28   13   36 1
    29   14   15 2
    30   14   16 1
    31   16   17 2
    32   16   18 1
    33   18   23 ar
    34   18   19 ar
    35   19   20 ar
    36   20   21 ar
    37   20   37 1
    38   21   22 ar
    39   21   38 1
    40   22   23 ar
    41   22   39 1
    42   23   40 1
@<TRIPOS>MOLECULE
ZINC01529614
   24    26     0     0     0
SMALL
USER_CHARGES

@<TRIPOS>ATOM
      1 C1         -0.0167    1.3789    0.0096 C.ar      1 <0>        -0.0820
      2 C2          1.1642    2.1013    0.0022 C.ar      1 <0>        -0.1209
      3 C3          2.3818    1.4478   -0.0129 C.ar      1 <0>        -0.0537
      4 C4          2.4168    0.0552   -0.0201 C.ar      1 <0>        -0.1574
      5 C5          1.2168   -0.6822   -0.0134 C.ar      1 <0>        -0.0083
      6 C6          0.0021   -0.0041    0.0020 C.ar      1 <0>        -0.1113
      7 C7          1.2457   -2.1611   -0.0235 C.ar      1 <0>        -0.0083
      8 C8          0.0855   -2.8840   -0.2823 C.ar      1 <0>        -0.1113
      9 C9          0.1204   -4.2666   -0.2891 C.ar      1 <0>        -0.0820
     10 C10         1.3015   -4.9446   -0.0402 C.ar      1 <0>        -0.1209
     11 C11         2.4655   -4.2462    0.2188 C.ar      1 <0>        -0.0537
     12 C12         2.4463   -2.8533    0.2277 C.ar      1 <0>        -0.1574
     13 C13         3.6781   -2.0807    0.4986 C.2       1 <0>         0.3721
     14 O1          4.6118   -2.5543    1.1126 O.2       1 <0>        -0.3900
     15 C14         3.7058   -0.6700   -0.0339 C.2       1 <0>         0.3721
     16 O2          4.7256   -0.1600   -0.4497 O.2       1 <0>        -0.3900
     17 H1         -0.9622    1.9004    0.0260 H         1 <0>         0.1360
     18 H2          1.1338    3.1809    0.0079 H         1 <0>         0.1372
     19 H3          3.3016    2.0139   -0.0193 H         1 <0>         0.1400
     20 H4         -0.9256   -0.5571    0.0077 H         1 <0>         0.1384
     21 H5         -0.8418   -2.3659   -0.4773 H         1 <0>         0.1383
     22 H6         -0.7831   -4.8231   -0.4904 H         1 <0>         0.1360
     23 H7          1.3132   -6.0245   -0.0482 H         1 <0>         0.1372
     24 H8          3.3855   -4.7776    0.4131 H         1 <0>         0.1400
@<TRIPOS>BOND
     1    1    6 ar
     2    1    2 ar
     3    1   17 1
     4    2    3 ar
     5    2   18 1
     6    3    4 ar
     7    3   19 1
     8    4   15 1
     9    4    5 ar
    10    5    6 ar
    11    5    7 1
    12    6   20 1
    13    7   12 ar
    14    7    8 ar
    15    8    9 ar
    16    8   21 1
    17    9   10 ar
    18    9   22 1
    19   10   11 ar
    20   10   23 1
    21   11   12 ar
    22   11   24 1
    23   12   13 1
    24   13   14 2
    25   13   15 1
    26   15   16 2
@<TRIPOS>MOLECULE
ZINC01700208
   18    19     0     0     0
SMALL
USER_CHARGES

@<TRIPOS>ATOM
      1 C1         -0.0167    1.3807    0.0096 C.ar      1 <0>        -0.0891
      2 C2          1.1632    2.1012    0.0022 C.ar      1 <0>        -0.1127
      3 C3          2.3846    1.4461   -0.0134 C.ar      1 <0>        -0.0576
      4 C4          2.4214    0.0565   -0.0213 C.ar      1 <0>        -0.1498
      5 C5          1.2207   -0.6819   -0.0133 C.ar      1 <0>        -0.0463
      6 C6          0.0021   -0.0041    0.0020 C.ar      1 <0>        -0.0967
      7 C7          1.2577   -2.1490   -0.0225 C.2       1 <0>        -0.0099
      8 C8          2.4187   -2.8299   -0.0382 C.2       1 <0>        -0.2225
      9 C9          3.6692   -2.1674   -0.0471 C.2       1 <0>         0.3512
     10 O1          4.7021   -2.8074   -0.0612 O.2       1 <0>        -0.3934
     11 C10         3.7078   -0.6701   -0.0384 C.2       1 <0>         0.3576
     12 O2          4.7633   -0.0721   -0.0461 O.2       1 <0>        -0.3863
     13 H1         -0.9620    1.9027    0.0260 H         1 <0>         0.1366
     14 H2          1.1330    3.1807    0.0083 H         1 <0>         0.1374
     15 H3          3.3039    2.0130   -0.0199 H         1 <0>         0.1412
     16 H4         -0.9251   -0.5578    0.0083 H         1 <0>         0.1404
     17 H5          0.3275   -2.6977   -0.0162 H         1 <0>         0.1472
     18 H6          2.3954   -3.9096   -0.0437 H         1 <0>         0.1527
@<TRIPOS>BOND
     1    1    6 ar
     2    1    2 ar
     3    1   13 1
     4    2    3 ar
     5    2   14 1
     6    3    4 ar
     7    3   15 1
     8    4   11 1
     9    4    5 ar
    10    5    6 ar
    11    5    7 1
    12    6   16 1
    13    7    8 2
    14    7   17 1
    15    8    9 1
    16    8   18 1
    17    9   10 2
    18    9   11 1
    19   11   12 2
@<TRIPOS>MOLECULE
ZINC13862822
   24    26     0     0     0
SMALL
USER_CHARGES
2-bromophenanthrene-9,10-dione
@<TRIPOS>ATOM
      1 C1          1.2095   -0.6783   -0.0120 C.ar      1 <0>        -0.0822
      2 C2          2.4068    0.0168   -0.0191 C.ar      1 <0>        -0.1163
      3 C3          2.4111    1.3987   -0.0124 C.ar      1 <0>        -0.0536
      4 C4          1.2027    2.0919    0.0018 C.ar      1 <0>        -0.1531
      5 C5         -0.0168    1.3872    0.0097 C.ar      1 <0>        -0.0148
      6 C6          0.0021   -0.0041    0.0020 C.ar      1 <0>        -0.1068
      7 C7         -1.3038    2.1158    0.0320 C.ar      1 <0>         0.0097
      8 C8         -2.4883    1.4397    0.3077 C.ar      1 <0>        -0.1054
      9 C9         -3.6879    2.1272    0.3264 C.ar      1 <0>        -0.0525
     10 C10        -3.7262    3.4884    0.0724 C.ar      1 <0>        -0.0996
     11 C11        -2.5595    4.1798   -0.2139 C.ar      1 <0>        -0.0250
     12 C12        -1.3438    3.5001   -0.2304 C.ar      1 <0>        -0.1521
     13 C13        -0.0807    4.2147   -0.5162 C.2       1 <0>         0.3733
     14 O1         -0.0588    5.2583   -1.1354 O.2       1 <0>        -0.3837
     15 C14         1.1783    3.5707    0.0076 C.2       1 <0>         0.3732
     16 O2          2.1161    4.2272    0.4106 O.2       1 <0>        -0.3856
     17 Br1        -5.3797    4.4055    0.1029 Br        1 <0>        -0.0287
     18 H1          1.2185   -1.7582   -0.0180 H         1 <0>         0.1375
     19 H2          3.3418   -0.5235   -0.0301 H         1 <0>         0.1385
     20 H3          3.3465    1.9385   -0.0175 H         1 <0>         0.1414
     21 H4         -0.9256   -0.5571    0.0067 H         1 <0>         0.1397
     22 H5         -2.4707    0.3785    0.5074 H         1 <0>         0.1487
     23 H6         -4.6042    1.5976    0.5414 H         1 <0>         0.1468
     24 H7         -2.5908    5.2411   -0.4117 H         1 <0>         0.1505
@<TRIPOS>BOND
     1    1    6 ar
     2    1    2 ar
     3    1   18 1
     4    2    3 ar
     5    2   19 1
     6    3    4 ar
     7    3   20 1
     8    4   15 1
     9    4    5 ar
    10    5    6 ar
    11    5    7 1
    12    6   21 1
    13    7   12 ar
    14    7    8 ar
    15    8    9 ar
    16    8   22 1
    17    9   10 ar
    18    9   23 1
    19   10   11 ar
    20   10   17 1
    21   11   12 ar
    22   11   24 1
    23   12   13 1
    24   13   14 2
    25   13   15 1
    26   15   16 2
@<TRIPOS>MOLECULE
ZINC49670025
   65    69     0     0     0
SMALL
USER_CHARGES

@<TRIPOS>ATOM
      1 C1         -0.0167    1.3786    0.0096 C.ar      1 <0>        -0.1199
      2 C2          1.1696    2.0892    0.0021 C.ar      1 <0>        -0.0967
      3 C3          2.3774    1.4195   -0.0135 C.ar      1 <0>        -0.1113
      4 C4          2.3996    0.0309   -0.0212 C.ar      1 <0>         0.1415
      5 C5          1.2065   -0.6797   -0.0132 C.ar      1 <0>        -0.1334
      6 C6          0.0021   -0.0041    0.0020 C.ar      1 <0>        -0.0894
      7 N1          3.6227   -0.6513   -0.0375 N.pl3     1 <0>        -0.2987
      8 C7          3.7640   -1.9904   -0.0515 C.2       1 <0>         0.1104
      9 C8          5.1174   -2.2722   -0.0658 C.2       1 <0>        -0.2198
     10 C9          5.8091   -0.9776   -0.0594 C.2       1 <0>         0.1507
     11 N2          4.8823   -0.0457   -0.0477 N.2       1 <0>        -0.2575
     12 C10         7.2754   -0.7619   -0.0698 C.ar      1 <0>         0.0356
     13 C11         8.1178   -1.6471    0.6015 C.ar      1 <0>        -0.1154
     14 C12         9.4822   -1.4412    0.5882 C.ar      1 <0>        -0.0143
     15 C13        10.0146   -0.3589   -0.0894 C.ar      1 <0>        -0.6674
     16 C14         9.1837    0.5228   -0.7572 C.ar      1 <0>        -0.0182
     17 C15         7.8182    0.3238   -0.7558 C.ar      1 <0>        -0.1054
     18 S1         11.7577   -0.1022   -0.1013 S.o2      1 <0>         2.6894
     19 O1         11.9626    1.2824   -0.3466 O.2       1 <0>        -0.9535
     20 O2         12.2724   -0.7561    1.0505 O.2       1 <0>        -0.9500
     21 N3         12.3626   -0.9100   -1.4142 N.pl3     1 <0>        -0.9947
     22 C16        12.7877   -2.3118   -1.3000 C.3       1 <0>         0.1182
     23 C17        12.0705   -3.1337   -2.3756 C.3       1 <0>        -0.1388
     24 C18        12.3302   -2.5080   -3.7478 C.3       1 <0>        -0.1179
     25 C19        11.7707   -1.0838   -3.7751 C.3       1 <0>        -0.1375
     26 C20        12.4788   -0.2405   -2.7169 C.3       1 <0>         0.1196
     27 C21         5.7387   -3.6008   -0.0835 C.2       1 <0>         0.1168
     28 C22         4.9605   -4.7146   -0.0875 C.2       1 <0>        -0.2404
     29 C23         5.3535   -6.1353   -0.0981 C.2       1 <0>         0.5419
     30 O3          6.5227   -6.4747   -0.1044 O.2       1 <0>        -0.4465
     31 N4          4.3732   -7.0228   -0.0999 N.am      1 <0>        -0.5105
     32 C24         3.0792   -6.6426   -0.0925 C.2       1 <0>         0.2845
     33 S2          1.6805   -7.6298   -0.0934 S.2       1 <0>        -0.3147
     34 S3          3.1789   -4.8599   -0.0736 S.3       1 <0>         0.0119
     35 C25         4.7001   -8.4508   -0.1108 C.3       1 <0>         0.1095
     36 C26         4.8198   -8.9576    1.3279 C.3       1 <0>        -0.6924
     37 S4          5.2245  -10.7258    1.3144 S.o2      1 <0>         2.6423
     38 O4          5.3435  -11.2302    2.6736 O.2       1 <0>        -1.0551
     39 O5          4.1566  -11.4192    0.6109 O.2       1 <0>        -1.0509
     40 O6          6.4842  -10.8865    0.6048 O.3       1 <0>        -1.0567
     41 H1         -0.9598    1.9047    0.0260 H         1 <0>         0.1323
     42 H2          1.1517    3.1690    0.0081 H         1 <0>         0.1350
     43 H3          3.3035    1.9750   -0.0201 H         1 <0>         0.1397
     44 H4          1.2205   -1.7596   -0.0195 H         1 <0>         0.1335
     45 H5         -0.9261   -0.5562    0.0079 H         1 <0>         0.1388
     46 H6          2.9630   -2.7148   -0.0511 H         1 <0>         0.1913
     47 H7          7.7033   -2.4922    1.1311 H         1 <0>         0.1418
     48 H8         10.1357   -2.1260    1.1081 H         1 <0>         0.1490
     49 H9          9.6050    1.3661   -1.2842 H         1 <0>         0.1453
     50 H10         7.1708    1.0103   -1.2813 H         1 <0>         0.1396
     51 H11        13.8657   -2.3798   -1.4464 H         1 <0>         0.0775
     52 H12        12.5261   -2.6937   -0.3132 H         1 <0>         0.0924
     53 H13        12.4485   -4.1561   -2.3645 H         1 <0>         0.0792
     54 H14        10.9991   -3.1392   -2.1751 H         1 <0>         0.0691
     55 H15        13.4033   -2.4802   -3.9371 H         1 <0>         0.0650
     56 H16        11.8413   -3.1050   -4.5176 H         1 <0>         0.0660
     57 H17        11.9352   -0.6471   -4.7601 H         1 <0>         0.0760
     58 H18        10.7021   -1.1086   -3.5615 H         1 <0>         0.0674
     59 H19        12.0134    0.7438   -2.6646 H         1 <0>         0.0897
     60 H20        13.5310   -0.1358   -2.9814 H         1 <0>         0.0764
     61 H21         6.8146   -3.6938   -0.0932 H         1 <0>         0.1666
     62 H22         3.9114   -9.0001   -0.6250 H         1 <0>         0.1246
     63 H23         5.6465   -8.6030   -0.6296 H         1 <0>         0.1173
     64 H24         5.6084   -8.4082    1.8421 H         1 <0>         0.1081
     65 H25         3.8734   -8.8054    1.8466 H         1 <0>         0.1127
@<TRIPOS>BOND
     1    1    6 ar
     2    1    2 ar
     3    1   41 1
     4    2    3 ar
     5    2   42 1
     6    3    4 ar
     7    3   43 1
     8    4    5 ar
     9    4    7 1
    10    5    6 ar
    11    5   44 1
    12    6   45 1
    13    7   11 1
    14    7    8 1
    15    8    9 2
    16    8   46 1
    17    9   10 1
    18    9   27 1
    19   10   11 2
    20   10   12 1
    21   12   17 ar
    22   12   13 ar
    23   13   14 ar
    24   13   47 1
    25   14   15 ar
    26   14   48 1
    27   15   16 ar
    28   15   18 1
    29   16   17 ar
    30   16   49 1
    31   17   50 1
    32   18   19 2
    33   18   20 2
    34   18   21 1
    35   21   26 1
    36   21   22 1
    37   22   23 1
    38   22   51 1
    39   22   52 1
    40   23   24 1
    41   23   53 1
    42   23   54 1
    43   24   25 1
    44   24   55 1
    45   24   56 1
    46   25   26 1
    47   25   57 1
    48   25   58 1
    49   26   59 1
    50   26   60 1
    51   27   28 2
    52   27   61 1
    53   28   34 1
    54   28   29 1
    55   29   30 2
    56   29   31 am
    57   31   32 1
    58   31   35 1
    59   32   33 2
    60   32   34 1
    61   35   36 1
    62   35   62 1
    63   35   63 1
    64   36   37 1
    65   36   64 1
    66   36   65 1
    67   37   38 2
    68   37   39 2
    69   37   40 1
@<TRIPOS>MOLECULE
ZINC49670134
   61    65     0     0     0
SMALL
USER_CHARGES

@<TRIPOS>ATOM
      1 C1         -0.0167    1.3786    0.0096 C.ar      1 <0>        -0.1226
      2 C2          1.1696    2.0892    0.0021 C.ar      1 <0>        -0.0970
      3 C3          2.3774    1.4195   -0.0134 C.ar      1 <0>        -0.1129
      4 C4          2.3996    0.0310   -0.0211 C.ar      1 <0>         0.1459
      5 C5          1.2065   -0.6797   -0.0130 C.ar      1 <0>        -0.1357
      6 C6          0.0021   -0.0041    0.0020 C.ar      1 <0>        -0.0893
      7 N1          3.6227   -0.6513   -0.0373 N.pl3     1 <0>        -0.3031
      8 C7          3.7638   -1.9902   -0.0512 C.2       1 <0>         0.1105
      9 C8          5.1174   -2.2722   -0.0646 C.2       1 <0>        -0.2275
     10 C9          5.8092   -0.9775   -0.0577 C.2       1 <0>         0.1746
     11 N2          4.8822   -0.0456   -0.0475 N.2       1 <0>        -0.2714
     12 C10         7.2752   -0.7618   -0.0668 C.ar      1 <0>        -0.0650
     13 C11         8.1161   -1.6479    0.6061 C.ar      1 <0>        -0.0516
     14 C12         9.4798   -1.4442    0.5957 C.ar      1 <0>        -0.1451
     15 C13        10.0160   -0.3585   -0.0837 C.ar      1 <0>         0.1471
     16 C14         9.1816    0.5258   -0.7542 C.ar      1 <0>        -0.2104
     17 C15         7.8175    0.3245   -0.7530 C.ar      1 <0>        -0.0400
     18 O1         11.3602   -0.1607   -0.0920 O.3       1 <0>        -0.3043
     19 C16        11.8443    0.9758   -0.8103 C.3       1 <0>         0.0995
     20 C17        13.3468    1.0317   -0.7086 C.ar      1 <0>        -0.0938
     21 C18        13.9439    1.7181    0.3323 C.ar      1 <0>        -0.0811
     22 C19        15.3219    1.7697    0.4260 C.ar      1 <0>        -0.1138
     23 C20        16.1037    1.1342   -0.5221 C.ar      1 <0>        -0.0243
     24 C21        15.5057    0.4474   -1.5636 C.ar      1 <0>        -0.1131
     25 C22        14.1275    0.3918   -1.6532 C.ar      1 <0>        -0.0803
     26 Cl1        17.8346    1.1990   -0.4053 Cl        1 <0>        -0.0661
     27 C23         5.7385   -3.6007   -0.0818 C.2       1 <0>         0.1240
     28 C24         4.9602   -4.7145   -0.0864 C.2       1 <0>        -0.2466
     29 C25         5.3531   -6.1350   -0.0967 C.2       1 <0>         0.5419
     30 O2          6.5223   -6.4745   -0.1026 O.2       1 <0>        -0.4479
     31 N3          4.3728   -7.0226   -0.0987 N.am      1 <0>        -0.5105
     32 C26         3.0788   -6.6424   -0.0921 C.2       1 <0>         0.2857
     33 S1          1.6801   -7.6296   -0.0934 S.2       1 <0>        -0.3220
     34 S2          3.1785   -4.8597   -0.0736 S.3       1 <0>         0.0132
     35 C27         4.6997   -8.4506   -0.1088 C.3       1 <0>         0.1077
     36 C28         4.8186   -8.9568    1.3302 C.3       1 <0>        -0.6916
     37 S3          5.2234  -10.7250    1.3177 S.o2      1 <0>         2.6424
     38 O3          5.3320  -11.1867    2.6928 O.2       1 <0>        -1.0578
     39 O4          4.1610  -11.4402    0.6278 O.2       1 <0>        -1.0502
     40 O5          6.4883  -10.9075    0.6228 O.3       1 <0>        -1.0560
     41 H1         -0.9598    1.9047    0.0260 H         1 <0>         0.1312
     42 H2          1.1517    3.1691    0.0080 H         1 <0>         0.1338
     43 H3          3.3035    1.9750   -0.0200 H         1 <0>         0.1393
     44 H4          1.2205   -1.7596   -0.0193 H         1 <0>         0.1331
     45 H5         -0.9261   -0.5562    0.0079 H         1 <0>         0.1378
     46 H6          2.9628   -2.7146   -0.0515 H         1 <0>         0.1888
     47 H7          7.6996   -2.4924    1.1350 H         1 <0>         0.1383
     48 H8         10.1315   -2.1298    1.1168 H         1 <0>         0.1414
     49 H9          9.6018    1.3697   -1.2811 H         1 <0>         0.1338
     50 H10         7.1694    1.0098   -1.2791 H         1 <0>         0.1321
     51 H11        11.5538    0.8944   -1.8577 H         1 <0>         0.0768
     52 H12        11.4173    1.8837   -0.3843 H         1 <0>         0.0762
     53 H13        13.3334    2.2144    1.0721 H         1 <0>         0.1353
     54 H14        15.7882    2.3062    1.2391 H         1 <0>         0.1372
     55 H15        16.1155   -0.0486   -2.3042 H         1 <0>         0.1378
     56 H16        13.6605   -0.1483   -2.4635 H         1 <0>         0.1362
     57 H17         6.8145   -3.6937   -0.0909 H         1 <0>         0.1668
     58 H18         3.9114   -9.0002   -0.6232 H         1 <0>         0.1238
     59 H19         5.6465   -8.6030   -0.6270 H         1 <0>         0.1165
     60 H20         5.6070   -8.4072    1.8446 H         1 <0>         0.1090
     61 H21         3.8719   -8.8044    1.8484 H         1 <0>         0.1136
@<TRIPOS>BOND
     1    1    6 ar
     2    1    2 ar
     3    1   41 1
     4    2    3 ar
     5    2   42 1
     6    3    4 ar
     7    3   43 1
     8    4    5 ar
     9    4    7 1
    10    5    6 ar
    11    5   44 1
    12    6   45 1
    13    7   11 1
    14    7    8 1
    15    8    9 2
    16    8   46 1
    17    9   10 1
    18    9   27 1
    19   10   11 2
    20   10   12 1
    21   12   17 ar
    22   12   13 ar
    23   13   14 ar
    24   13   47 1
    25   14   15 ar
    26   14   48 1
    27   15   16 ar
    28   15   18 1
    29   16   17 ar
    30   16   49 1
    31   17   50 1
    32   18   19 1
    33   19   20 1
    34   19   51 1
    35   19   52 1
    36   20   25 ar
    37   20   21 ar
    38   21   22 ar
    39   21   53 1
    40   22   23 ar
    41   22   54 1
    42   23   24 ar
    43   23   26 1
    44   24   25 ar
    45   24   55 1
    46   25   56 1
    47   27   28 2
    48   27   57 1
    49   28   34 1
    50   28   29 1
    51   29   30 2
    52   29   31 am
    53   31   32 1
    54   31   35 1
    55   32   33 2
    56   32   34 1
    57   35   36 1
    58   35   58 1
    59   35   59 1
    60   36   37 1
    61   36   60 1
    62   36   61 1
    63   37   38 2
    64   37   39 2
    65   37   40 1
@<TRIPOS>MOLECULE
ZINC49670037
   61    65     0     0     0
SMALL
USER_CHARGES

@<TRIPOS>ATOM
      1 C1         -0.0167    1.3781    0.0096 C.ar      1 <0>        -0.1090
      2 C2          1.1709    2.0855    0.0021 C.ar      1 <0>        -0.1229
      3 C3          2.3773    1.4107   -0.0130 C.ar      1 <0>        -0.0941
      4 C4          2.3960    0.0285   -0.0201 C.ar      1 <0>        -0.0987
      5 C5          1.2084   -0.6789   -0.0117 C.ar      1 <0>        -0.0949
      6 C6          0.0021   -0.0041    0.0020 C.ar      1 <0>        -0.1237
      7 C7          3.7112   -0.7071   -0.0376 C.3       1 <0>         0.1004
      8 O1          4.1410   -0.9464    1.3041 O.3       1 <0>        -0.3043
      9 C8          5.3183   -1.6048    1.4665 C.ar      1 <0>         0.1480
     10 C9          6.0465   -2.0064    0.3546 C.ar      1 <0>        -0.2110
     11 C10         7.2419   -2.6744    0.5158 C.ar      1 <0>        -0.0397
     12 C11         7.7194   -2.9465    1.7976 C.ar      1 <0>        -0.0666
     13 C12         6.9855   -2.5417    2.9124 C.ar      1 <0>        -0.0514
     14 C13         5.7935   -1.8695    2.7440 C.ar      1 <0>        -0.1461
     15 C14         9.0034   -3.6646    1.9748 C.2       1 <0>         0.1755
     16 C15         9.9846   -3.4473    3.0448 C.2       1 <0>        -0.2276
     17 C16        11.0186   -4.3350    2.8108 C.2       1 <0>         0.1104
     18 N1         10.7144   -5.0382    1.7036 N.pl3     1 <0>        -0.3034
     19 N2          9.4766   -4.6206    1.2067 N.2       1 <0>        -0.2717
     20 C17        11.5142   -6.0396    1.1387 C.ar      1 <0>         0.1462
     21 C18        12.7248   -6.3787    1.7287 C.ar      1 <0>        -0.1358
     22 C19        13.5113   -7.3666    1.1693 C.ar      1 <0>        -0.0894
     23 C20        13.0944   -8.0178    0.0228 C.ar      1 <0>        -0.1228
     24 C21        11.8895   -7.6825   -0.5671 C.ar      1 <0>        -0.0970
     25 C22        11.0957   -6.6995   -0.0093 C.ar      1 <0>        -0.1129
     26 C23         9.8874   -2.4808    4.1436 C.2       1 <0>         0.1244
     27 C24        10.8834   -2.3962    5.0641 C.2       1 <0>        -0.2470
     28 C25        11.0017   -1.5185    6.2422 C.2       1 <0>         0.5414
     29 O2         10.1359   -0.7113    6.5271 O.2       1 <0>        -0.4461
     30 N3         12.0946   -1.6515    6.9748 N.am      1 <0>        -0.5104
     31 C26        13.0514   -2.5469    6.6558 C.2       1 <0>         0.2868
     32 S1         14.5236   -2.8658    7.4694 S.2       1 <0>        -0.3261
     33 S2         12.4066   -3.3242    5.1833 S.3       1 <0>         0.0137
     34 C27        12.2701   -0.8070    8.1590 C.3       1 <0>         0.1095
     35 C28        11.6688   -1.5078    9.3788 C.3       1 <0>        -0.6916
     36 S3         11.8861   -0.4622   10.8451 S.o2      1 <0>         2.6426
     37 O3         11.3210   -1.1094   12.0189 O.2       1 <0>        -1.0556
     38 O4         13.2958   -0.1738   11.0590 O.2       1 <0>        -1.0484
     39 O5         11.1603    0.7623   10.5453 O.3       1 <0>        -1.0598
     40 H1         -0.9591    1.9053    0.0259 H         1 <0>         0.1244
     41 H2          1.1563    3.1654    0.0076 H         1 <0>         0.1260
     42 H3          3.3051    1.9634   -0.0196 H         1 <0>         0.1253
     43 H4          1.2231   -1.7588   -0.0176 H         1 <0>         0.1244
     44 H5         -0.9258   -0.5567    0.0082 H         1 <0>         0.1254
     45 H6          3.5884   -1.6586   -0.5549 H         1 <0>         0.0734
     46 H7          4.4573   -0.1052   -0.5563 H         1 <0>         0.0740
     47 H8          5.6760   -1.7957   -0.6377 H         1 <0>         0.1336
     48 H9          7.8076   -2.9868   -0.3495 H         1 <0>         0.1318
     49 H10         7.3525   -2.7509    3.9063 H         1 <0>         0.1381
     50 H11         5.2269   -1.5518    3.6068 H         1 <0>         0.1411
     51 H12        11.9109   -4.4447    3.4092 H         1 <0>         0.1887
     52 H13        13.0511   -5.8702    2.6239 H         1 <0>         0.1331
     53 H14        14.4530   -7.6305    1.6274 H         1 <0>         0.1377
     54 H15        13.7114   -8.7897   -0.4130 H         1 <0>         0.1311
     55 H16        11.5667   -8.1930   -1.4625 H         1 <0>         0.1338
     56 H17        10.1526   -6.4414   -0.4678 H         1 <0>         0.1393
     57 H18         9.0242   -1.8364    4.2212 H         1 <0>         0.1669
     58 H19        13.3329   -0.6332    8.3270 H         1 <0>         0.1224
     59 H20        11.7662    0.1469    8.0029 H         1 <0>         0.1188
     60 H21        10.6059   -1.6816    9.2108 H         1 <0>         0.1105
     61 H22        12.1726   -2.4617    9.5349 H         1 <0>         0.1098
@<TRIPOS>BOND
     1    1    6 ar
     2    1    2 ar
     3    1   40 1
     4    2    3 ar
     5    2   41 1
     6    3    4 ar
     7    3   42 1
     8    4    5 ar
     9    4    7 1
    10    5    6 ar
    11    5   43 1
    12    6   44 1
    13    7    8 1
    14    7   45 1
    15    7   46 1
    16    8    9 1
    17    9   14 ar
    18    9   10 ar
    19   10   11 ar
    20   10   47 1
    21   11   12 ar
    22   11   48 1
    23   12   13 ar
    24   12   15 1
    25   13   14 ar
    26   13   49 1
    27   14   50 1
    28   15   19 2
    29   15   16 1
    30   16   17 2
    31   16   26 1
    32   17   18 1
    33   17   51 1
    34   18   19 1
    35   18   20 1
    36   20   25 ar
    37   20   21 ar
    38   21   22 ar
    39   21   52 1
    40   22   23 ar
    41   22   53 1
    42   23   24 ar
    43   23   54 1
    44   24   25 ar
    45   24   55 1
    46   25   56 1
    47   26   27 2
    48   26   57 1
    49   27   33 1
    50   27   28 1
    51   28   29 2
    52   28   30 am
    53   30   31 1
    54   30   34 1
    55   31   32 2
    56   31   33 1
    57   34   35 1
    58   34   58 1
    59   34   59 1
    60   35   36 1
    61   35   60 1
    62   35   61 1
    63   36   37 2
    64   36   38 2
    65   36   39 1
@<TRIPOS>MOLECULE
ZINC49694485
   61    65     0     0     0
SMALL
USER_CHARGES

@<TRIPOS>ATOM
      1 C1         -0.0167    1.3786    0.0096 C.ar      1 <0>        -0.1226
      2 C2          1.1696    2.0892    0.0021 C.ar      1 <0>        -0.0970
      3 C3          2.3774    1.4195   -0.0134 C.ar      1 <0>        -0.1128
      4 C4          2.3996    0.0310   -0.0211 C.ar      1 <0>         0.1459
      5 C5          1.2065   -0.6797   -0.0130 C.ar      1 <0>        -0.1357
      6 C6          0.0021   -0.0041    0.0020 C.ar      1 <0>        -0.0894
      7 N1          3.6227   -0.6513   -0.0373 N.pl3     1 <0>        -0.3030
      8 C7          3.7638   -1.9902   -0.0512 C.2       1 <0>         0.1104
      9 C8          5.1174   -2.2722   -0.0646 C.2       1 <0>        -0.2274
     10 C9          5.8092   -0.9775   -0.0577 C.2       1 <0>         0.1744
     11 N2          4.8822   -0.0456   -0.0475 N.2       1 <0>        -0.2710
     12 C10         7.2752   -0.7618   -0.0668 C.ar      1 <0>        -0.0640
     13 C11         8.1161   -1.6479    0.6061 C.ar      1 <0>        -0.0519
     14 C12         9.4798   -1.4442    0.5957 C.ar      1 <0>        -0.1442
     15 C13        10.0160   -0.3585   -0.0837 C.ar      1 <0>         0.1480
     16 C14         9.1816    0.5258   -0.7542 C.ar      1 <0>        -0.2087
     17 C15         7.8175    0.3245   -0.7530 C.ar      1 <0>        -0.0396
     18 O1         11.3602   -0.1607   -0.0920 O.3       1 <0>        -0.3067
     19 C16        11.8443    0.9758   -0.8103 C.3       1 <0>         0.1007
     20 C17        13.3468    1.0317   -0.7086 C.ar      1 <0>        -0.0842
     21 C18        14.0284    0.0600   -0.0000 C.ar      1 <0>        -0.0848
     22 C19        15.4065    0.1110    0.0933 C.ar      1 <0>        -0.1124
     23 C20        16.1042    1.1339   -0.5220 C.ar      1 <0>        -0.1054
     24 C21        15.4239    2.1059   -1.2307 C.ar      1 <0>        -0.1086
     25 C22        14.0447    2.0521   -1.3292 C.ar      1 <0>        -0.0307
     26 Cl1        13.1900    3.2691   -2.2249 Cl        1 <0>        -0.0668
     27 C23         5.7385   -3.6007   -0.0818 C.2       1 <0>         0.1241
     28 C24         4.9602   -4.7145   -0.0864 C.2       1 <0>        -0.2467
     29 C25         5.3531   -6.1350   -0.0967 C.2       1 <0>         0.5415
     30 O2          6.5223   -6.4745   -0.1026 O.2       1 <0>        -0.4463
     31 N3          4.3728   -7.0226   -0.0987 N.am      1 <0>        -0.5104
     32 C26         3.0788   -6.6424   -0.0921 C.2       1 <0>         0.2866
     33 S1          1.6801   -7.6296   -0.0934 S.2       1 <0>        -0.3255
     34 S2          3.1785   -4.8597   -0.0736 S.3       1 <0>         0.0135
     35 C27         4.6997   -8.4506   -0.1088 C.3       1 <0>         0.1096
     36 C28         4.8186   -8.9568    1.3302 C.3       1 <0>        -0.6917
     37 S3          5.2234  -10.7250    1.3177 S.o2      1 <0>         2.6427
     38 O3          5.3927  -11.2169    2.6761 O.2       1 <0>        -1.0556
     39 O4          4.1836  -11.4793    0.6351 O.2       1 <0>        -1.0483
     40 O5          6.4776  -10.8190    0.5868 O.3       1 <0>        -1.0599
     41 H1         -0.9598    1.9047    0.0260 H         1 <0>         0.1312
     42 H2          1.1517    3.1691    0.0080 H         1 <0>         0.1338
     43 H3          3.3035    1.9750   -0.0200 H         1 <0>         0.1394
     44 H4          1.2205   -1.7596   -0.0193 H         1 <0>         0.1331
     45 H5         -0.9261   -0.5562    0.0079 H         1 <0>         0.1378
     46 H6          2.9628   -2.7146   -0.0515 H         1 <0>         0.1888
     47 H7          7.6996   -2.4924    1.1350 H         1 <0>         0.1388
     48 H8         10.1315   -2.1298    1.1168 H         1 <0>         0.1419
     49 H9          9.6018    1.3697   -1.2811 H         1 <0>         0.1340
     50 H10         7.1694    1.0098   -1.2791 H         1 <0>         0.1325
     51 H11        11.5538    0.8944   -1.8577 H         1 <0>         0.0837
     52 H12        11.4173    1.8837   -0.3843 H         1 <0>         0.0832
     53 H13        13.4839   -0.7391    0.4811 H         1 <0>         0.1437
     54 H14        15.9385   -0.6482    0.6474 H         1 <0>         0.1332
     55 H15        17.1809    1.1735   -0.4484 H         1 <0>         0.1341
     56 H16        15.9690    2.9051   -1.7110 H         1 <0>         0.1364
     57 H17         6.8145   -3.6937   -0.0909 H         1 <0>         0.1669
     58 H18         3.9114   -9.0002   -0.6232 H         1 <0>         0.1218
     59 H19         5.6465   -8.6030   -0.6270 H         1 <0>         0.1195
     60 H20         5.6070   -8.4072    1.8446 H         1 <0>         0.1104
     61 H21         3.8719   -8.8044    1.8484 H         1 <0>         0.1098
@<TRIPOS>BOND
     1    1    6 ar
     2    1    2 ar
     3    1   41 1
     4    2    3 ar
     5    2   42 1
     6    3    4 ar
     7    3   43 1
     8    4    5 ar
     9    4    7 1
    10    5    6 ar
    11    5   44 1
    12    6   45 1
    13    7   11 1
    14    7    8 1
    15    8    9 2
    16    8   46 1
    17    9   10 1
    18    9   27 1
    19   10   11 2
    20   10   12 1
    21   12   17 ar
    22   12   13 ar
    23   13   14 ar
    24   13   47 1
    25   14   15 ar
    26   14   48 1
    27   15   16 ar
    28   15   18 1
    29   16   17 ar
    30   16   49 1
    31   17   50 1
    32   18   19 1
    33   19   20 1
    34   19   51 1
    35   19   52 1
    36   20   25 ar
    37   20   21 ar
    38   21   22 ar
    39   21   53 1
    40   22   23 ar
    41   22   54 1
    42   23   24 ar
    43   23   55 1
    44   24   25 ar
    45   24   56 1
    46   25   26 1
    47   27   28 2
    48   27   57 1
    49   28   34 1
    50   28   29 1
    51   29   30 2
    52   29   31 am
    53   31   32 1
    54   31   35 1
    55   32   33 2
    56   32   34 1
    57   35   36 1
    58   35   58 1
    59   35   59 1
    60   36   37 1
    61   36   60 1
    62   36   61 1
    63   37   38 2
    64   37   39 2
    65   37   40 1
@<TRIPOS>MOLECULE
ZINC49723001
   61    65     0     0     0
SMALL
USER_CHARGES

@<TRIPOS>ATOM
      1 C1         -0.0167    1.3786    0.0096 C.ar      1 <0>        -0.1226
      2 C2          1.1696    2.0892    0.0021 C.ar      1 <0>        -0.0970
      3 C3          2.3774    1.4195   -0.0134 C.ar      1 <0>        -0.1128
      4 C4          2.3996    0.0310   -0.0211 C.ar      1 <0>         0.1458
      5 C5          1.2065   -0.6797   -0.0130 C.ar      1 <0>        -0.1356
      6 C6          0.0021   -0.0041    0.0020 C.ar      1 <0>        -0.0894
      7 N1          3.6227   -0.6513   -0.0373 N.pl3     1 <0>        -0.3030
      8 C7          3.7638   -1.9902   -0.0512 C.2       1 <0>         0.1104
      9 C8          5.1174   -2.2722   -0.0646 C.2       1 <0>        -0.2274
     10 C9          5.8092   -0.9775   -0.0577 C.2       1 <0>         0.1743
     11 N2          4.8822   -0.0456   -0.0475 N.2       1 <0>        -0.2710
     12 C10         7.2752   -0.7618   -0.0668 C.ar      1 <0>        -0.0638
     13 C11         8.1161   -1.6479    0.6061 C.ar      1 <0>        -0.0520
     14 C12         9.4798   -1.4442    0.5957 C.ar      1 <0>        -0.1439
     15 C13        10.0160   -0.3585   -0.0837 C.ar      1 <0>         0.1475
     16 C14         9.1816    0.5258   -0.7542 C.ar      1 <0>        -0.2089
     17 C15         7.8175    0.3245   -0.7530 C.ar      1 <0>        -0.0397
     18 O1         11.3602   -0.1607   -0.0920 O.3       1 <0>        -0.3059
     19 C16        11.8443    0.9758   -0.8103 C.3       1 <0>         0.1044
     20 C17        13.3468    1.0317   -0.7086 C.ar      1 <0>        -0.1275
     21 C18        14.0284    0.0601   -0.0001 C.ar      1 <0>        -0.0687
     22 C19        15.4066    0.1111    0.0933 C.ar      1 <0>        -0.1275
     23 C20        16.1049    1.1338   -0.5218 C.ar      1 <0>        -0.0888
     24 C21        15.4257    2.1058   -1.2310 C.ar      1 <0>        -0.1521
     25 C22        14.0454    2.0529   -1.3297 C.ar      1 <0>         0.1043
     26 F1         13.3806    3.0002   -2.0267 F         1 <0>        -0.1373
     27 C23         5.7385   -3.6007   -0.0818 C.2       1 <0>         0.1241
     28 C24         4.9602   -4.7145   -0.0864 C.2       1 <0>        -0.2466
     29 C25         5.3531   -6.1350   -0.0967 C.2       1 <0>         0.5415
     30 O2          6.5223   -6.4745   -0.1026 O.2       1 <0>        -0.4462
     31 N3          4.3728   -7.0226   -0.0987 N.am      1 <0>        -0.5104
     32 C26         3.0788   -6.6424   -0.0921 C.2       1 <0>         0.2866
     33 S1          1.6801   -7.6296   -0.0934 S.2       1 <0>        -0.3254
     34 S2          3.1785   -4.8597   -0.0736 S.3       1 <0>         0.0136
     35 C27         4.6997   -8.4506   -0.1088 C.3       1 <0>         0.1095
     36 C28         4.8186   -8.9568    1.3302 C.3       1 <0>        -0.6916
     37 S3          5.2234  -10.7250    1.3177 S.o2      1 <0>         2.6427
     38 O3          5.3672  -11.2228    2.6769 O.2       1 <0>        -1.0556
     39 O4          4.1965  -11.4762    0.6125 O.2       1 <0>        -1.0484
     40 O5          6.4910  -10.8161    0.6100 O.3       1 <0>        -1.0599
     41 H1         -0.9598    1.9047    0.0260 H         1 <0>         0.1312
     42 H2          1.1517    3.1691    0.0080 H         1 <0>         0.1339
     43 H3          3.3035    1.9750   -0.0200 H         1 <0>         0.1394
     44 H4          1.2205   -1.7596   -0.0193 H         1 <0>         0.1331
     45 H5         -0.9261   -0.5562    0.0079 H         1 <0>         0.1378
     46 H6          2.9628   -2.7146   -0.0515 H         1 <0>         0.1888
     47 H7          7.6996   -2.4924    1.1350 H         1 <0>         0.1389
     48 H8         10.1315   -2.1298    1.1168 H         1 <0>         0.1421
     49 H9          9.6018    1.3697   -1.2811 H         1 <0>         0.1340
     50 H10         7.1694    1.0098   -1.2791 H         1 <0>         0.1326
     51 H11        11.5538    0.8944   -1.8577 H         1 <0>         0.0820
     52 H12        11.4173    1.8837   -0.3843 H         1 <0>         0.0814
     53 H13        13.4840   -0.7389    0.4810 H         1 <0>         0.1441
     54 H14        15.9383   -0.6483    0.6474 H         1 <0>         0.1337
     55 H15        17.1816    1.1730   -0.4475 H         1 <0>         0.1347
     56 H16        15.9713    2.9047   -1.7111 H         1 <0>         0.1384
     57 H17         6.8145   -3.6937   -0.0909 H         1 <0>         0.1669
     58 H18         3.9114   -9.0002   -0.6232 H         1 <0>         0.1221
     59 H19         5.6465   -8.6030   -0.6270 H         1 <0>         0.1191
     60 H20         5.6070   -8.4072    1.8446 H         1 <0>         0.1105
     61 H21         3.8719   -8.8044    1.8484 H         1 <0>         0.1098
@<TRIPOS>BOND
     1    1    6 ar
     2    1    2 ar
     3    1   41 1
     4    2    3 ar
     5    2   42 1
     6    3    4 ar
     7    3   43 1
     8    4    5 ar
     9    4    7 1
    10    5    6 ar
    11    5   44 1
    12    6   45 1
    13    7   11 1
    14    7    8 1
    15    8    9 2
    16    8   46 1
    17    9   10 1
    18    9   27 1
    19   10   11 2
    20   10   12 1
    21   12   17 ar
    22   12   13 ar
    23   13   14 ar
    24   13   47 1
    25   14   15 ar
    26   14   48 1
    27   15   16 ar
    28   15   18 1
    29   16   17 ar
    30   16   49 1
    31   17   50 1
    32   18   19 1
    33   19   20 1
    34   19   51 1
    35   19   52 1
    36   20   25 ar
    37   20   21 ar
    38   21   22 ar
    39   21   53 1
    40   22   23 ar
    41   22   54 1
    42   23   24 ar
    43   23   55 1
    44   24   25 ar
    45   24   56 1
    46   25   26 1
    47   27   28 2
    48   27   57 1
    49   28   34 1
    50   28   29 1
    51   29   30 2
    52   29   31 am
    53   31   32 1
    54   31   35 1
    55   32   33 2
    56   32   34 1
    57   35   36 1
    58   35   58 1
    59   35   59 1
    60   36   37 1
    61   36   60 1
    62   36   61 1
    63   37   38 2
    64   37   39 2
    65   37   40 1
@<TRIPOS>MOLECULE
ZINC02277650
   54    57     0     0     0
SMALL
USER_CHARGES
2-[[3-ethoxycarbonyl-4-(4-phenylphenyl)-2-thienyl]carbamoyl]benzoic acid
@<TRIPOS>ATOM
      1 C1          3.4598    2.0242    0.0692 C.3       1 <0>        -0.1531
      2 C2          2.2540    1.0827    0.0498 C.3       1 <0>         0.0592
      3 O1          1.0300    1.8639    0.0464 O.3       1 <0>        -0.3465
      4 C3         -0.1328    1.1802    0.0299 C.2       1 <0>         0.5446
      5 O2         -0.1231   -0.0363    0.0186 O.2       1 <0>        -0.5026
      6 C4         -1.4052    1.9015    0.0194 C.2       1 <0>        -0.2394
      7 C5         -2.0840    2.2653    1.2489 C.2       1 <0>        -0.0281
      8 C6         -3.2594    2.9341    1.1224 C.2       1 <0>        -0.2436
      9 S1         -3.4607    3.0788   -0.6408 S.3       1 <0>         0.2738
     10 C7         -2.0201    2.2770   -1.1681 C.2       1 <0>         0.1181
     11 N1         -1.5854    2.0601   -2.4643 N.am      1 <0>        -0.6219
     12 C8         -2.3208    2.5006   -3.5043 C.2       1 <0>         0.5716
     13 O3         -3.3658    3.0882   -3.3040 O.2       1 <0>        -0.4437
     14 C9         -1.8564    2.2689   -4.8890 C.ar      1 <0>        -0.1087
     15 C10        -1.5626    0.9788   -5.3227 C.ar      1 <0>        -0.1067
     16 C11        -1.1330    0.7666   -6.6191 C.ar      1 <0>        -0.1283
     17 C12        -0.9826    1.8312   -7.4903 C.ar      1 <0>        -0.1121
     18 C13        -1.2644    3.1192   -7.0762 C.ar      1 <0>        -0.0826
     19 C14        -1.7030    3.3519   -5.7750 C.ar      1 <0>        -0.0623
     20 C15        -2.0053    4.7277   -5.3270 C.2       1 <0>         0.4807
     21 O4         -2.2794    4.9410   -4.1631 O.co2     1 <0>        -0.6009
     22 C16        -1.5232    1.9237    2.5768 C.ar      1 <0>        -0.0238
     23 C17        -1.1131    0.6173    2.8460 C.ar      1 <0>        -0.1062
     24 C18        -0.5877    0.3011    4.0792 C.ar      1 <0>        -0.1067
     25 C19        -0.4745    1.2842    5.0620 C.ar      1 <0>        -0.0519
     26 C20        -0.8892    2.5888    4.7950 C.ar      1 <0>        -0.1083
     27 C21        -1.4102    2.9068    3.5605 C.ar      1 <0>        -0.0975
     28 C22         0.0865    0.9421    6.3915 C.ar      1 <0>        -0.0389
     29 C23         0.2057    1.9235    7.3741 C.ar      1 <0>        -0.1124
     30 C24         0.7232    1.5981    8.6114 C.ar      1 <0>        -0.1178
     31 C25         1.1337    0.3034    8.8735 C.ar      1 <0>        -0.1234
     32 C26         1.0231   -0.6735    7.9003 C.ar      1 <0>        -0.1177
     33 C27         0.5018   -0.3609    6.6613 C.ar      1 <0>        -0.1129
     34 H1          3.4377    2.6611   -0.8151 H         1 <0>         0.0687
     35 H2          3.4221    2.6445    0.9647 H         1 <0>         0.0665
     36 H3          4.3786    1.4378    0.0717 H         1 <0>         0.0784
     37 H4          2.2761    0.4458    0.9342 H         1 <0>         0.0685
     38 H5          2.2916    0.4624   -0.8457 H         1 <0>         0.0691
     39 H6         -3.9141    3.2920    1.9032 H         1 <0>         0.1890
     40 H7         -0.7515    1.5912   -2.6241 H         1 <0>         0.4147
     41 H8         -1.6740    0.1435   -4.6471 H         1 <0>         0.1227
     42 H9         -0.9093   -0.2358   -6.9530 H         1 <0>         0.1239
     43 H10        -0.6427    1.6544   -8.5000 H         1 <0>         0.1241
     44 H11        -1.1441    3.9453   -7.7614 H         1 <0>         0.1399
     45 H12        -1.2045   -0.1449    2.0863 H         1 <0>         0.1324
     46 H13        -0.2671   -0.7092    4.2865 H         1 <0>         0.1248
     47 H14        -0.8014    3.3497    5.5564 H         1 <0>         0.1269
     48 H15        -1.7316    3.9170    3.3540 H         1 <0>         0.1303
     49 H16        -0.1100    2.9357    7.1689 H         1 <0>         0.1259
     50 H17         0.8119    2.3567    9.3750 H         1 <0>         0.1232
     51 H18         1.5426    0.0543    9.8416 H         1 <0>         0.1210
     52 H19         1.3455   -1.6826    8.1104 H         1 <0>         0.1229
     53 H20         0.4162   -1.1242    5.9021 H         1 <0>         0.1251
     54 O5         -1.9767    5.7451   -6.2095 O.co2     1 <0>        -0.7478
@<TRIPOS>BOND
     1    1    2 1
     2    1   34 1
     3    1   35 1
     4    1   36 1
     5    2    3 1
     6    2   37 1
     7    2   38 1
     8    3    4 1
     9    4    5 2
    10    4    6 1
    11    6   10 2
    12    6    7 1
    13    7    8 2
    14    7   22 1
    15    8    9 1
    16    8   39 1
    17    9   10 1
    18   10   11 1
    19   11   12 am
    20   11   40 1
    21   12   13 2
    22   12   14 1
    23   14   19 ar
    24   14   15 ar
    25   15   16 ar
    26   15   41 1
    27   16   17 ar
    28   16   42 1
    29   17   18 ar
    30   17   43 1
    31   18   19 ar
    32   18   44 1
    33   19   20 1
    34   20   21 2
    35   20   54 1
    36   22   27 ar
    37   22   23 ar
    38   23   24 ar
    39   23   45 1
    40   24   25 ar
    41   24   46 1
    42   25   26 ar
    43   25   28 1
    44   26   27 ar
    45   26   47 1
    46   27   48 1
    47   28   33 ar
    48   28   29 ar
    49   29   30 ar
    50   29   49 1
    51   30   31 ar
    52   30   50 1
    53   31   32 ar
    54   31   51 1
    55   32   33 ar
    56   32   52 1
    57   33   53 1
