@<TRIPOS>MOLECULE
ZINC16051229
   18    19     0     0     0
SMALL
USER_CHARGES

@<TRIPOS>ATOM
      1 C1         -0.0167    1.3826    0.0096 C.ar      1 <0>        -0.0363
      2 C2          1.1424    2.1147    0.0025 C.ar      1 <0>        -0.0870
      3 C3          2.4018    1.4731   -0.0129 C.ar      1 <0>         0.1893
      4 C4          2.3823    0.0597   -0.0203 C.ar      1 <0>        -0.1896
      5 C5          1.2174   -0.6649   -0.0131 C.ar      1 <0>         0.0294
      6 C6          0.0021   -0.0041    0.0020 C.ar      1 <0>        -0.0631
      7 N1         -1.2651   -0.7692    0.0109 N.pl3     1 <0>         0.0411
      8 O1         -2.3237   -0.1853    0.0248 O.2       1 <0>        -0.1540
      9 O2         -1.2414   -1.9779    0.0042 O.3       1 <0>        -0.1607
     10 S1          4.1126   -0.3429   -0.0383 S.3       1 <0>         0.0321
     11 C7          4.7336    1.3330   -0.0351 C.2       1 <0>         0.4378
     12 N2          6.0421    1.7711   -0.0451 N.pl3     1 <0>        -0.7772
     13 N3          3.6276    2.0416   -0.0211 N.2       1 <0>        -0.5930
     14 H1         -0.9660    1.8975    0.0260 H         1 <0>         0.1616
     15 H2          1.0927    3.1936    0.0084 H         1 <0>         0.1552
     16 H3          1.2489   -1.7444   -0.0194 H         1 <0>         0.1606
     17 H4          6.7687    1.1286   -0.0555 H         1 <0>         0.4288
     18 H5          6.2353    2.7217   -0.0418 H         1 <0>         0.4248
@<TRIPOS>BOND
     1    1    6 ar
     2    1    2 ar
     3    1   14 1
     4    2    3 ar
     5    2   15 1
     6    3   13 1
     7    3    4 ar
     8    4    5 ar
     9    4   10 1
    10    5    6 ar
    11    5   16 1
    12    6    7 1
    13    7    8 2
    14    7    9 1
    15   10   11 1
    16   11   12 1
    17   11   13 2
    18   12   17 1
    19   12   18 1
@<TRIPOS>MOLECULE
ZINC01529323
   53    55     0     0     0
SMALL
USER_CHARGES

@<TRIPOS>ATOM
      1 C1         -0.0178    1.4608    0.0101 C.3       1 <0>         0.0943
      2 N1          0.0021   -0.0041    0.0020 N.pl3     1 <0>        -0.6229
      3 C2          0.0241   -0.7433    1.2666 C.3       1 <0>         0.1846
      4 C3         -1.3889   -1.0161    1.7137 C.ar      1 <0>         0.0299
      5 C4         -1.9892   -2.2351    1.3999 C.ar      1 <0>         0.1556
      6 N2         -3.2219   -2.4965    1.7797 N.ar      1 <0>        -0.4373
      7 C5         -3.9051   -1.5830    2.4739 C.ar      1 <0>         0.3718
      8 C6         -3.2902   -0.3458    2.7901 C.ar      1 <0>        -0.0918
      9 N3         -2.0425   -0.1038    2.4012 N.ar      1 <0>        -0.3728
     10 C7         -4.0706    0.6301    3.5527 C.ar      1 <0>         0.5432
     11 N4         -5.3055    0.2953    3.9004 N.ar      1 <0>        -0.6300
     12 C8         -5.8196   -0.8850    3.5693 C.ar      1 <0>         0.6362
     13 N5         -5.1609   -1.7987    2.8845 N.ar      1 <0>        -0.5990
     14 N6         -7.1130   -1.1692    3.9639 N.pl3     1 <0>        -0.8099
     15 N7         -3.5402    1.8539    3.8976 N.pl3     1 <0>        -0.7943
     16 C9          0.0000   -0.6928   -1.2059 C.ar      1 <0>         0.2179
     17 C10         0.0132   -2.0849   -1.2118 C.ar      1 <0>        -0.2113
     18 C11         0.0112   -2.7693   -2.4056 C.ar      1 <0>        -0.0159
     19 C12        -0.0041   -2.0653   -3.6133 C.ar      1 <0>        -0.1590
     20 C13        -0.0173   -0.6674   -3.6040 C.ar      1 <0>        -0.0366
     21 C14        -0.0210    0.0112   -2.4068 C.ar      1 <0>        -0.1985
     22 C15        -0.0058   -2.7960   -4.8948 C.2       1 <0>         0.5556
     23 O1          0.0061   -4.0119   -4.9015 O.2       1 <0>        -0.5600
     24 N8         -0.0205   -2.1158   -6.0583 N.am      1 <0>        -0.6793
     25 C16        -0.0222   -2.8414   -7.3310 C.3       1 <0>         0.0733
     26 H1         -0.6020   -3.7584   -7.2256 H         1 <0>         0.0773
     27 C17        -0.6480   -1.9644   -8.4172 C.3       1 <0>        -0.0801
     28 C18        -2.1222   -1.7198   -8.0888 C.3       1 <0>        -0.1777
     29 C19        -2.7386   -0.8559   -9.1588 C.2       1 <0>         0.4909
     30 O2         -2.0616   -0.4715  -10.0971 O.co2     1 <0>        -0.6975
     31 O3         -3.9143   -0.5414   -9.0862 O.co2     1 <0>        -0.7207
     32 C20         1.3940   -3.1839   -7.7158 C.2       1 <0>         0.4958
     33 O4          2.3190   -2.8526   -6.9939 O.co2     1 <0>        -0.6970
     34 O5          1.6147   -3.7923   -8.7491 O.co2     1 <0>        -0.7014
     35 H2          1.0048    1.8381    0.0023 H         1 <0>         0.0502
     36 H3         -0.5450    1.8219   -0.8730 H         1 <0>         0.0690
     37 H4         -0.5280    1.8123    0.9069 H         1 <0>         0.0657
     38 H5          0.5496   -1.6879    1.1262 H         1 <0>         0.1015
     39 H6          0.5371   -0.1514    2.0246 H         1 <0>         0.0948
     40 H7         -1.4361   -2.9733    0.8382 H         1 <0>         0.1815
     41 H8         -7.6209   -0.5150    4.4689 H         1 <0>         0.4148
     42 H9         -7.5132   -2.0229    3.7358 H         1 <0>         0.4190
     43 H10        -2.6346    2.0814    3.6347 H         1 <0>         0.4250
     44 H11        -4.0722    2.4880    4.4032 H         1 <0>         0.4139
     45 H12         0.0253   -2.6282   -0.2785 H         1 <0>         0.1208
     46 H13         0.0217   -3.8493   -2.4096 H         1 <0>         0.1351
     47 H14        -0.0287   -0.1208   -4.5353 H         1 <0>         0.1282
     48 H15        -0.0359    1.0910   -2.3989 H         1 <0>         0.1244
     49 H16        -0.0300   -1.1459   -6.0530 H         1 <0>         0.3877
     50 H17        -0.1225   -1.0104   -8.4615 H         1 <0>         0.0543
     51 H18        -0.5691   -2.4677   -9.3808 H         1 <0>         0.0783
     52 H19        -2.6477   -2.6737   -8.0445 H         1 <0>         0.0522
     53 H20        -2.2011   -1.2164   -7.1252 H         1 <0>         0.0501
@<TRIPOS>BOND
     1    1    2 1
     2    1   35 1
     3    1   36 1
     4    1   37 1
     5    2    3 1
     6    2   16 1
     7    3    4 1
     8    3   38 1
     9    3   39 1
    10    4    9 ar
    11    4    5 ar
    12    5    6 ar
    13    5   40 1
    14    6    7 ar
    15    7   13 ar
    16    7    8 ar
    17    8    9 ar
    18    8   10 ar
    19   10   11 ar
    20   10   15 1
    21   11   12 ar
    22   12   13 ar
    23   12   14 1
    24   14   41 1
    25   14   42 1
    26   15   43 1
    27   15   44 1
    28   16   21 ar
    29   16   17 ar
    30   17   18 ar
    31   17   45 1
    32   18   19 ar
    33   18   46 1
    34   19   20 ar
    35   19   22 1
    36   20   21 ar
    37   20   47 1
    38   21   48 1
    39   22   23 2
    40   22   24 am
    41   24   25 1
    42   24   49 1
    43   25   26 1
    44   25   27 1
    45   25   32 1
    46   27   28 1
    47   27   50 1
    48   27   51 1
    49   28   29 1
    50   28   52 1
    51   28   53 1
    52   29   30 2
    53   29   31 1
    54   32   33 2
    55   32   34 1
@<TRIPOS>MOLECULE
ZINC06920406
   53    55     0     0     0
SMALL
USER_CHARGES

@<TRIPOS>ATOM
      1 C1         -0.0178    1.4608    0.0101 C.3       1 <0>         0.0941
      2 N1          0.0021   -0.0041    0.0020 N.pl3     1 <0>        -0.6227
      3 C2          0.0241   -0.7433    1.2666 C.3       1 <0>         0.1846
      4 C3         -1.3889   -1.0161    1.7137 C.ar      1 <0>         0.0297
      5 C4         -1.9892   -2.2351    1.3999 C.ar      1 <0>         0.1557
      6 N2         -3.2219   -2.4965    1.7797 N.ar      1 <0>        -0.4368
      7 C5         -3.9051   -1.5830    2.4739 C.ar      1 <0>         0.3719
      8 C6         -3.2902   -0.3458    2.7901 C.ar      1 <0>        -0.0918
      9 N3         -2.0425   -0.1038    2.4012 N.ar      1 <0>        -0.3728
     10 C7         -4.0706    0.6301    3.5527 C.ar      1 <0>         0.5431
     11 N4         -5.3055    0.2953    3.9004 N.ar      1 <0>        -0.6300
     12 C8         -5.8196   -0.8850    3.5693 C.ar      1 <0>         0.6360
     13 N5         -5.1609   -1.7987    2.8845 N.ar      1 <0>        -0.5986
     14 N6         -7.1130   -1.1692    3.9639 N.pl3     1 <0>        -0.8100
     15 N7         -3.5402    1.8539    3.8976 N.pl3     1 <0>        -0.7944
     16 C9          0.0000   -0.6928   -1.2059 C.ar      1 <0>         0.2189
     17 C10         0.0132   -2.0849   -1.2118 C.ar      1 <0>        -0.2116
     18 C11         0.0112   -2.7693   -2.4056 C.ar      1 <0>        -0.0155
     19 C12        -0.0041   -2.0653   -3.6133 C.ar      1 <0>        -0.1616
     20 C13        -0.0173   -0.6674   -3.6040 C.ar      1 <0>        -0.0356
     21 C14        -0.0210    0.0112   -2.4068 C.ar      1 <0>        -0.1983
     22 C15        -0.0058   -2.7960   -4.8948 C.2       1 <0>         0.5487
     23 O1          0.0061   -4.0119   -4.9015 O.2       1 <0>        -0.5585
     24 N8         -0.0205   -2.1158   -6.0583 N.am      1 <0>        -0.6789
     25 C16        -0.0222   -2.8414   -7.3310 C.3       1 <0>         0.0745
     26 H1          0.5768   -3.7469   -7.2338 H         1 <0>         0.0773
     27 C17         0.5711   -1.9524   -8.4257 C.3       1 <0>        -0.0822
     28 C18         2.0446   -1.6789   -8.1177 C.3       1 <0>        -0.1766
     29 C19         2.6291   -0.8032   -9.1959 C.2       1 <0>         0.4909
     30 O2          1.9317   -0.4323  -10.1247 O.co2     1 <0>        -0.6980
     31 O3          3.7993   -0.4657   -9.1396 O.co2     1 <0>        -0.7201
     32 C20        -1.4367   -3.2117   -7.6962 C.2       1 <0>         0.4981
     33 O4         -2.3634   -2.5041   -7.3399 O.co2     1 <0>        -0.6991
     34 O5         -1.6542   -4.2188   -8.3480 O.co2     1 <0>        -0.7022
     35 H2          1.0048    1.8381    0.0023 H         1 <0>         0.0507
     36 H3         -0.5450    1.8219   -0.8730 H         1 <0>         0.0690
     37 H4         -0.5280    1.8123    0.9069 H         1 <0>         0.0658
     38 H5          0.5496   -1.6879    1.1262 H         1 <0>         0.1014
     39 H6          0.5371   -0.1514    2.0246 H         1 <0>         0.0950
     40 H7         -1.4361   -2.9733    0.8382 H         1 <0>         0.1814
     41 H8         -7.6209   -0.5150    4.4689 H         1 <0>         0.4147
     42 H9         -7.5132   -2.0229    3.7358 H         1 <0>         0.4190
     43 H10        -2.6346    2.0814    3.6347 H         1 <0>         0.4250
     44 H11        -4.0722    2.4880    4.4032 H         1 <0>         0.4139
     45 H12         0.0253   -2.6282   -0.2785 H         1 <0>         0.1211
     46 H13         0.0217   -3.8493   -2.4096 H         1 <0>         0.1354
     47 H14        -0.0287   -0.1208   -4.5353 H         1 <0>         0.1292
     48 H15        -0.0359    1.0910   -2.3989 H         1 <0>         0.1249
     49 H16        -0.0300   -1.1459   -6.0530 H         1 <0>         0.3899
     50 H17         0.4888   -2.4573   -9.3882 H         1 <0>         0.0717
     51 H18         0.0264   -1.0090   -8.4626 H         1 <0>         0.0594
     52 H19         2.1270   -1.1740   -7.1552 H         1 <0>         0.0514
     53 H20         2.5893   -2.6223   -8.0808 H         1 <0>         0.0527
@<TRIPOS>BOND
     1    1    2 1
     2    1   35 1
     3    1   36 1
     4    1   37 1
     5    2    3 1
     6    2   16 1
     7    3    4 1
     8    3   38 1
     9    3   39 1
    10    4    9 ar
    11    4    5 ar
    12    5    6 ar
    13    5   40 1
    14    6    7 ar
    15    7   13 ar
    16    7    8 ar
    17    8    9 ar
    18    8   10 ar
    19   10   11 ar
    20   10   15 1
    21   11   12 ar
    22   12   13 ar
    23   12   14 1
    24   14   41 1
    25   14   42 1
    26   15   43 1
    27   15   44 1
    28   16   21 ar
    29   16   17 ar
    30   17   18 ar
    31   17   45 1
    32   18   19 ar
    33   18   46 1
    34   19   20 ar
    35   19   22 1
    36   20   21 ar
    37   20   47 1
    38   21   48 1
    39   22   23 2
    40   22   24 am
    41   24   25 1
    42   24   49 1
    43   25   26 1
    44   25   27 1
    45   25   32 1
    46   27   28 1
    47   27   50 1
    48   27   51 1
    49   28   29 1
    50   28   52 1
    51   28   53 1
    52   29   30 2
    53   29   31 1
    54   32   33 2
    55   32   34 1
@<TRIPOS>MOLECULE
ZINC01670209
   28    29     0     0     0
SMALL
USER_CHARGES
6-benzylsulfanylpyrimidine-2,4-diamine
@<TRIPOS>ATOM
      1 C1         -0.0167    1.3781    0.0096 C.ar      1 <0>        -0.1131
      2 C2          1.1709    2.0855    0.0021 C.ar      1 <0>        -0.1194
      3 C3          2.3773    1.4107   -0.0141 C.ar      1 <0>        -0.1014
      4 C4          2.3960    0.0285   -0.0217 C.ar      1 <0>        -0.0842
      5 C5          1.2084   -0.6789   -0.0136 C.ar      1 <0>        -0.1014
      6 C6          0.0021   -0.0041    0.0020 C.ar      1 <0>        -0.1194
      7 C7          3.7112   -0.7071   -0.0392 C.3       1 <0>        -0.0579
      8 S1          4.2203   -0.9919   -1.7526 S.3       1 <0>        -0.0354
      9 C8          5.7400   -1.8420   -1.4830 C.ar      1 <0>         0.2252
     10 C9          6.5062   -2.2772   -2.5614 C.ar      1 <0>        -0.3270
     11 C10         7.7018   -2.9387   -2.3000 C.ar      1 <0>         0.4903
     12 N1          8.0666   -3.1428   -1.0358 N.ar      1 <0>        -0.6324
     13 C11         7.3098   -2.7200   -0.0345 C.ar      1 <0>         0.6184
     14 N2          6.1686   -2.0818   -0.2451 N.ar      1 <0>        -0.6116
     15 N3          7.7225   -2.9509    1.2660 N.pl3     1 <0>        -0.8201
     16 N4          8.5000   -3.3847   -3.3420 N.pl3     1 <0>        -0.8338
     17 H1         -0.9592    1.9054    0.0170 H         1 <0>         0.1240
     18 H2          1.1563    3.1654    0.0081 H         1 <0>         0.1252
     19 H3          3.3051    1.9634   -0.0207 H         1 <0>         0.1249
     20 H4          1.2231   -1.7587   -0.0199 H         1 <0>         0.1249
     21 H5         -0.9258   -0.5567    0.0079 H         1 <0>         0.1252
     22 H6          4.4679   -0.1107    0.4703 H         1 <0>         0.1032
     23 H7          3.5990   -1.6641    0.4703 H         1 <0>         0.1032
     24 H8          6.1820   -2.1015   -3.5765 H         1 <0>         0.1418
     25 H9          7.1782   -2.6465    2.0089 H         1 <0>         0.4147
     26 H10         8.5562   -3.4172    1.4348 H         1 <0>         0.4143
     27 H11         9.3304   -3.8488   -3.1525 H         1 <0>         0.4078
     28 H12         8.2282   -3.2326   -4.2606 H         1 <0>         0.4138
@<TRIPOS>BOND
     1    1    6 ar
     2    1    2 ar
     3    1   17 1
     4    2    3 ar
     5    2   18 1
     6    3    4 ar
     7    3   19 1
     8    4    5 ar
     9    4    7 1
    10    5    6 ar
    11    5   20 1
    12    6   21 1
    13    7    8 1
    14    7   22 1
    15    7   23 1
    16    8    9 1
    17    9   14 ar
    18    9   10 ar
    19   10   11 ar
    20   10   24 1
    21   11   12 ar
    22   11   16 1
    23   12   13 ar
    24   13   14 ar
    25   13   15 1
    26   15   25 1
    27   15   26 1
    28   16   27 1
    29   16   28 1
@<TRIPOS>MOLECULE
ZINC00040831
   36    37     0     0     0
SMALL
USER_CHARGES
6,7-diisopropylpteridine-2,4-diamine
@<TRIPOS>ATOM
      1 C1         -2.9393   -3.2265   -0.4145 C.3       1 <0>        -0.1405
      2 C2         -3.6937   -2.4480    0.6652 C.3       1 <0>        -0.0421
      3 C3         -3.0216   -2.6745    2.0209 C.3       1 <0>        -0.1427
      4 C4         -3.6715   -0.9783    0.3329 C.ar      1 <0>         0.0594
      5 C5         -4.8641   -0.2556    0.3181 C.ar      1 <0>         0.1777
      6 N1         -4.8701    1.0288    0.0309 N.ar      1 <0>        -0.4364
      7 C6         -3.7199    1.6464   -0.2497 C.ar      1 <0>         0.3735
      8 C7         -2.5109    0.9071   -0.2338 C.ar      1 <0>        -0.0961
      9 N2         -2.5269   -0.3893    0.0589 N.ar      1 <0>        -0.3754
     10 C8         -1.2704    1.6187   -0.5467 C.ar      1 <0>         0.5431
     11 N3         -1.3548    2.9132   -0.8203 N.ar      1 <0>        -0.6291
     12 C9         -2.5253    3.5432   -0.8221 C.ar      1 <0>         0.6385
     13 N4         -3.6704    2.9507   -0.5477 N.ar      1 <0>        -0.6023
     14 N5         -2.5419    4.8921   -1.1214 N.pl3     1 <0>        -0.8081
     15 N6         -0.0567    0.9670   -0.5512 N.pl3     1 <0>        -0.7933
     16 C10        -6.1615   -0.9536    0.6354 C.3       1 <0>        -0.0532
     17 C11        -7.0335   -0.0408    1.4999 C.3       1 <0>        -0.1414
     18 C12        -6.8973   -1.2787   -0.6661 C.3       1 <0>        -0.1432
     19 H1         -3.4182   -3.0651   -1.3803 H         1 <0>         0.0526
     20 H2         -1.9070   -2.8794   -0.4583 H         1 <0>         0.0641
     21 H3         -2.9554   -4.2895   -0.1741 H         1 <0>         0.0628
     22 H4         -4.7261   -2.7950    0.7090 H         1 <0>         0.0959
     23 H5         -3.5591   -2.1199    2.7901 H         1 <0>         0.0543
     24 H6         -3.0377   -3.7376    2.2613 H         1 <0>         0.0653
     25 H7         -1.9893   -2.3275    1.9771 H         1 <0>         0.0614
     26 H8         -3.3816    5.3777   -1.1258 H         1 <0>         0.4193
     27 H9         -1.7138    5.3535   -1.3272 H         1 <0>         0.4167
     28 H10        -0.0138    0.0202   -0.3446 H         1 <0>         0.4251
     29 H11         0.7545    1.4540   -0.7648 H         1 <0>         0.4157
     30 H12        -5.9545   -1.8770    1.1762 H         1 <0>         0.0999
     31 H13        -7.2405    0.8827    0.9591 H         1 <0>         0.0717
     32 H14        -7.9719   -0.5456    1.7294 H         1 <0>         0.0631
     33 H15        -6.5094    0.1909    2.4271 H         1 <0>         0.0529
     34 H16        -7.1043   -0.3552   -1.2069 H         1 <0>         0.0639
     35 H17        -6.2760   -1.9290   -1.2819 H         1 <0>         0.0567
     36 H18        -7.8357   -1.7835   -0.4366 H         1 <0>         0.0702
@<TRIPOS>BOND
     1    1    2 1
     2    1   19 1
     3    1   20 1
     4    1   21 1
     5    2    3 1
     6    2    4 1
     7    2   22 1
     8    3   23 1
     9    3   24 1
    10    3   25 1
    11    4    9 ar
    12    4    5 ar
    13    5    6 ar
    14    5   16 1
    15    6    7 ar
    16    7   13 ar
    17    7    8 ar
    18    8    9 ar
    19    8   10 ar
    20   10   11 ar
    21   10   15 1
    22   11   12 ar
    23   12   13 ar
    24   12   14 1
    25   14   26 1
    26   14   27 1
    27   15   28 1
    28   15   29 1
    29   16   17 1
    30   16   18 1
    31   16   30 1
    32   17   31 1
    33   17   32 1
    34   17   33 1
    35   18   34 1
    36   18   35 1
    37   18   36 1
@<TRIPOS>MOLECULE
ZINC00120286
   30    32     0     0     0
SMALL
USER_CHARGES

@<TRIPOS>ATOM
      1 C1          0.0900    1.5471    0.2563 C.ar      1 <0>        -0.1111
      2 C2          0.6469    1.0128    1.4045 C.ar      1 <0>        -0.1135
      3 C3          1.8264    0.3000    1.3354 C.ar      1 <0>        -0.1190
      4 C4          2.4572    0.1188    0.1050 C.ar      1 <0>        -0.0321
      5 C5          1.8910    0.6597   -1.0489 C.ar      1 <0>        -0.0851
      6 C6          0.7112    1.3706   -0.9672 C.ar      1 <0>        -0.1158
      7 C7          3.7241   -0.6452    0.0241 C.ar      1 <0>         0.0539
      8 C8          3.8617   -1.8586    0.7391 C.ar      1 <0>         0.4460
      9 N1          4.9865   -2.5483    0.6747 N.ar      1 <0>        -0.5202
     10 C9          5.9989   -2.0951   -0.0711 C.ar      1 <0>         0.4278
     11 C10         5.8574   -0.8796   -0.7856 C.ar      1 <0>        -0.1483
     12 N2          4.7181   -0.1931   -0.7195 N.ar      1 <0>        -0.3451
     13 C11         6.9526   -0.4296   -1.5671 C.ar      1 <0>         0.5517
     14 N3          8.0539   -1.1660   -1.5917 N.ar      1 <0>        -0.6393
     15 C12         8.1431   -2.3008   -0.9052 C.ar      1 <0>         0.6433
     16 N4          7.1548   -2.7652   -0.1626 N.ar      1 <0>        -0.6059
     17 N5          9.3185   -3.0248   -0.9717 N.pl3     1 <0>        -0.8072
     18 N6          6.8727    0.7451   -2.2839 N.pl3     1 <0>        -0.7988
     19 N7          2.8131   -2.3247    1.5099 N.pl3     1 <0>        -0.8215
     20 H1         -0.8356    2.1005    0.3147 H         1 <0>         0.1260
     21 H2          0.1576    1.1542    2.3569 H         1 <0>         0.1288
     22 H3          2.2603   -0.1163    2.2325 H         1 <0>         0.1287
     23 H4          2.3752    0.5229   -2.0045 H         1 <0>         0.1268
     24 H5          0.2718    1.7900   -1.8601 H         1 <0>         0.1275
     25 H6         10.0570   -2.7020   -1.5114 H         1 <0>         0.4169
     26 H7          9.4050   -3.8556   -0.4786 H         1 <0>         0.4192
     27 H8          6.0606    1.2750   -2.2578 H         1 <0>         0.4239
     28 H9          7.6286    1.0419   -2.8144 H         1 <0>         0.4135
     29 H10         1.9462   -1.8920    1.4621 H         1 <0>         0.4169
     30 H11         2.9441   -3.0844    2.0986 H         1 <0>         0.4120
@<TRIPOS>BOND
     1    1    6 ar
     2    1    2 ar
     3    1   20 1
     4    2    3 ar
     5    2   21 1
     6    3    4 ar
     7    3   22 1
     8    4    5 ar
     9    4    7 1
    10    5    6 ar
    11    5   23 1
    12    6   24 1
    13    7   12 ar
    14    7    8 ar
    15    8    9 ar
    16    8   19 1
    17    9   10 ar
    18   10   16 ar
    19   10   11 ar
    20   11   12 ar
    21   11   13 ar
    22   13   14 ar
    23   13   18 1
    24   14   15 ar
    25   15   16 ar
    26   15   17 1
    27   17   25 1
    28   17   26 1
    29   18   27 1
    30   18   28 1
    31   19   29 1
    32   19   30 1
@<TRIPOS>MOLECULE
ZINC00120286
   31    33     0     0     0
SMALL
USER_CHARGES

@<TRIPOS>ATOM
      1 C1          0.0900    1.5471    0.2563 C.ar      1 <0>        -0.0907
      2 C2          0.6469    1.0128    1.4045 C.ar      1 <0>        -0.1092
      3 C3          1.8264    0.3000    1.3354 C.ar      1 <0>        -0.1132
      4 C4          2.4572    0.1188    0.1050 C.ar      1 <0>        -0.0687
      5 C5          1.8910    0.6597   -1.0489 C.ar      1 <0>        -0.0732
      6 C6          0.7112    1.3706   -0.9672 C.ar      1 <0>        -0.1122
      7 C7          3.7241   -0.6452    0.0241 C.ar      1 <0>         0.1131
      8 C8          3.8617   -1.8586    0.7391 C.ar      1 <0>         0.4712
      9 N1          4.9865   -2.5483    0.6747 N.ar      1 <0>        -0.5317
     10 C9          5.9989   -2.0951   -0.0711 C.ar      1 <0>         0.4172
     11 C10         5.8574   -0.8796   -0.7856 C.ar      1 <0>        -0.0978
     12 N2          4.7181   -0.1931   -0.7195 N.ar      1 <0>        -0.3358
     13 C11         6.9526   -0.4296   -1.5671 C.ar      1 <0>         0.5852
     14 N3          8.0539   -1.1660   -1.5917 N.ar      1 <0>        -0.5908
     15 C12         8.1431   -2.3008   -0.9052 C.ar      1 <0>         0.7067
     16 N4          7.1548   -2.7652   -0.1626 N.ar      1 <0>        -0.5776
     17 N5          9.3185   -3.0248   -0.9717 N.pl3     1 <0>        -0.7797
     18 N6          6.8727    0.7451   -2.2839 N.pl3     1 <0>        -0.7452
     19 N7          2.8131   -2.3247    1.5099 N.pl3     1 <0>        -0.7875
     20 H1         -0.8356    2.1005    0.3147 H         1 <0>         0.1348
     21 H2          0.1576    1.1542    2.3569 H         1 <0>         0.1369
     22 H3          2.2603   -0.1163    2.2325 H         1 <0>         0.1300
     23 H4          2.3752    0.5229   -2.0045 H         1 <0>         0.1307
     24 H5          0.2718    1.7900   -1.8601 H         1 <0>         0.1358
     25 H6         10.0570   -2.7020   -1.5114 H         1 <0>         0.4477
     26 H7          9.4050   -3.8556   -0.4786 H         1 <0>         0.4329
     27 H8          6.0606    1.2750   -2.2578 H         1 <0>         0.4406
     28 H9          7.6286    1.0419   -2.8144 H         1 <0>         0.4326
     29 H10         1.9462   -1.8920    1.4621 H         1 <0>         0.4309
     30 H11         2.9441   -3.0844    2.0986 H         1 <0>         0.4239
     31 H12         7.2671   -3.5986    0.3209 H         1 <0>         0.4433
@<TRIPOS>BOND
     1    1    6 ar
     2    1    2 ar
     3    1   20 1
     4    2    3 ar
     5    2   21 1
     6    3    4 ar
     7    3   22 1
     8    4    5 ar
     9    4    7 1
    10    5    6 ar
    11    5   23 1
    12    6   24 1
    13    7   12 ar
    14    7    8 ar
    15    8    9 ar
    16    8   19 1
    17    9   10 ar
    18   10   16 ar
    19   10   11 ar
    20   11   12 ar
    21   11   13 ar
    22   13   14 ar
    23   13   18 1
    24   14   15 ar
    25   15   16 ar
    26   15   17 1
    27   16   31 1
    28   17   25 1
    29   17   26 1
    30   18   27 1
    31   18   28 1
    32   19   29 1
    33   19   30 1
@<TRIPOS>MOLECULE
ZINC00006481
   20    21     0     0     0
SMALL
USER_CHARGES

@<TRIPOS>ATOM
      1 C1         -0.0168    1.3868    0.0097 C.ar      1 <0>        -0.1634
      2 C2          1.1429    2.1175    0.0025 C.ar      1 <0>        -0.0415
      3 C3          2.4023    1.4765   -0.0134 C.ar      1 <0>         0.1161
      4 C4          2.3854    0.0633   -0.0209 C.ar      1 <0>        -0.1388
      5 C5          1.2223   -0.6645   -0.0136 C.ar      1 <0>        -0.0550
      6 C6          0.0021   -0.0041    0.0020 C.ar      1 <0>         0.1025
      7 O1         -1.1614   -0.7081    0.0093 O.3       1 <0>        -0.3049
      8 C7         -2.3755    0.0454    0.0249 C.3       1 <0>         0.6054
      9 F1         -2.4349    0.8577   -1.1125 F         1 <0>        -0.1633
     10 F2         -3.4672   -0.8295    0.0306 F         1 <0>        -0.1286
     11 F3         -2.4131    0.8455    1.1719 F         1 <0>        -0.1634
     12 S1          4.1165   -0.3363   -0.0396 S.3       1 <0>         0.0076
     13 C8          4.7350    1.3404   -0.0365 C.2       1 <0>         0.4183
     14 N1          3.6287    2.0473   -0.0221 N.2       1 <0>        -0.5812
     15 N2          6.0437    1.7806   -0.0461 N.pl3     1 <0>        -0.7894
     16 H1         -0.9658    1.9021    0.0261 H         1 <0>         0.1421
     17 H2          1.0936    3.1964    0.0088 H         1 <0>         0.1435
     18 H3          1.2563   -1.7439   -0.0200 H         1 <0>         0.1483
     19 H4          6.7711    1.1390   -0.0559 H         1 <0>         0.4248
     20 H5          6.2356    2.7314   -0.0429 H         1 <0>         0.4210
@<TRIPOS>BOND
     1    1    6 ar
     2    1    2 ar
     3    1   16 1
     4    2    3 ar
     5    2   17 1
     6    3   14 1
     7    3    4 ar
     8    4    5 ar
     9    4   12 1
    10    5    6 ar
    11    5   18 1
    12    6    7 1
    13    7    8 1
    14    8    9 1
    15    8   10 1
    16    8   11 1
    17   12   13 1
    18   13   14 2
    19   13   15 1
    20   15   19 1
    21   15   20 1
