@<TRIPOS>MOLECULE
ZINC21289577
   55    57     0     0     0
SMALL
USER_CHARGES

@<TRIPOS>ATOM
      1 C1         -0.0167    1.3794    0.0096 C.ar      1 <0>        -0.1289
      2 C2          1.1667    2.0884    0.0021 C.ar      1 <0>        -0.0645
      3 C3          2.3848    1.4070   -0.0132 C.ar      1 <0>        -0.1104
      4 C4          2.3966    0.0113   -0.0208 C.ar      1 <0>        -0.0820
      5 C5          1.2061   -0.6856   -0.0132 C.ar      1 <0>        -0.1228
      6 C6          0.0021   -0.0041    0.0020 C.ar      1 <0>        -0.0784
      7 C7         -1.2946   -0.7719    0.0103 C.3       1 <0>        -0.0771
      8 C8         -1.7472   -1.0241   -1.4293 C.3       1 <0>        -0.1091
      9 C9         -3.0637   -1.8037   -1.4209 C.3       1 <0>        -0.1052
     10 H1         -2.9442   -2.7169   -0.8380 H         1 <0>         0.0798
     11 C10        -3.4594   -2.1582   -2.8551 C.3       1 <0>        -0.0331
     12 C11        -4.8607   -2.7038   -2.8925 C.2       1 <0>        -0.3419
     13 C12        -5.7500   -2.4731   -1.8896 C.2       1 <0>         0.4439
     14 N1         -7.0169   -2.9903   -1.9851 N.pl3     1 <0>        -0.6545
     15 H2         -7.6600   -2.8283   -1.2773 H         1 <0>         0.4094
     16 C13        -7.3745   -3.7299   -3.0703 C.2       1 <0>         0.6579
     17 N2         -6.5217   -3.9643   -4.0442 N.2       1 <0>        -0.6350
     18 C14        -5.2715   -3.4785   -3.9988 C.2       1 <0>         0.5436
     19 O1         -4.4913   -3.7058   -4.9122 O.2       1 <0>        -0.5263
     20 N3         -8.6435   -4.2391   -3.1495 N.pl3     1 <0>        -0.8255
     21 N4         -5.4033   -1.7373   -0.7796 N.pl3     1 <0>        -0.7319
     22 C15        -4.1705   -0.9388   -0.8024 C.3       1 <0>         0.1300
     23 C16         3.6569    2.1603   -0.0218 C.2       1 <0>         0.5428
     24 O2          3.6435    3.3757   -0.0155 O.2       1 <0>        -0.5536
     25 N5          4.8314    1.4994   -0.0366 N.am      1 <0>        -0.6749
     26 C17         6.0919    2.2459   -0.0451 C.3       1 <0>         0.0734
     27 H3          5.9814    3.1523    0.5501 H         1 <0>         0.0779
     28 C18         7.2027    1.3778    0.5494 C.3       1 <0>        -0.0826
     29 C19         6.9032    1.1060    2.0250 C.3       1 <0>        -0.1771
     30 C20         7.9973    0.2510    2.6105 C.2       1 <0>         0.4912
     31 O3          8.9302   -0.1078    1.9123 O.co2     1 <0>        -0.6972
     32 O4          7.9496   -0.0820    3.7824 O.co2     1 <0>        -0.7199
     33 C21         6.4472    2.6155   -1.4622 C.2       1 <0>         0.4982
     34 O5          7.0818    3.6322   -1.6861 O.co2     1 <0>        -0.7010
     35 O6          6.1002    1.8979   -2.3847 O.co2     1 <0>        -0.6979
     36 H4         -0.9598    1.9054    0.0260 H         1 <0>         0.1208
     37 H5          1.1508    3.1682    0.0077 H         1 <0>         0.1331
     38 H6          3.3358   -0.5219   -0.0330 H         1 <0>         0.1296
     39 H7          1.2138   -1.7656   -0.0191 H         1 <0>         0.1240
     40 H8         -1.1489   -1.7256    0.5176 H         1 <0>         0.0721
     41 H9         -2.0557   -0.1941    0.5345 H         1 <0>         0.0689
     42 H10        -1.8929   -0.0704   -1.9367 H         1 <0>         0.0708
     43 H11        -0.9861   -1.6019   -1.9536 H         1 <0>         0.0767
     44 H12        -3.4038   -1.2641   -3.4760 H         1 <0>         0.0687
     45 H13        -2.7702   -2.9076   -3.2445 H         1 <0>         0.0824
     46 H14        -9.2788   -4.0715   -2.4359 H         1 <0>         0.4087
     47 H15        -8.9070   -4.7673   -3.9192 H         1 <0>         0.4304
     48 H16        -5.9654   -1.7468    0.0108 H         1 <0>         0.4016
     49 H17        -3.8931   -0.6544    0.2127 H         1 <0>         0.0948
     50 H18        -4.3232   -0.0456   -1.4082 H         1 <0>         0.0719
     51 H19         4.8421    0.5294   -0.0416 H         1 <0>         0.3915
     52 H20         7.2537    0.4325    0.0090 H         1 <0>         0.0604
     53 H21         8.1565    1.8981    0.4621 H         1 <0>         0.0729
     54 H22         6.8522    2.0513    2.5654 H         1 <0>         0.0526
     55 H23         5.9494    0.5857    2.1123 H         1 <0>         0.0509
@<TRIPOS>BOND
     1    1    6 ar
     2    1    2 ar
     3    1   36 1
     4    2    3 ar
     5    2   37 1
     6    3    4 ar
     7    3   23 1
     8    4    5 ar
     9    4   38 1
    10    5    6 ar
    11    5   39 1
    12    6    7 1
    13    7    8 1
    14    7   40 1
    15    7   41 1
    16    8    9 1
    17    8   42 1
    18    8   43 1
    19    9   10 1
    20    9   22 1
    21    9   11 1
    22   11   12 1
    23   11   44 1
    24   11   45 1
    25   12   18 1
    26   12   13 2
    27   13   14 1
    28   13   21 1
    29   14   15 1
    30   14   16 1
    31   16   17 2
    32   16   20 1
    33   17   18 1
    34   18   19 2
    35   20   46 1
    36   20   47 1
    37   21   22 1
    38   21   48 1
    39   22   49 1
    40   22   50 1
    41   23   24 2
    42   23   25 am
    43   25   26 1
    44   25   51 1
    45   26   27 1
    46   26   28 1
    47   26   33 1
    48   28   29 1
    49   28   52 1
    50   28   53 1
    51   29   30 1
    52   29   54 1
    53   29   55 1
    54   30   31 2
    55   30   32 1
    56   33   34 2
    57   33   35 1
@<TRIPOS>MOLECULE
ZINC12504292
   55    57     0     0     0
SMALL
USER_CHARGES
(2S)-2-[[4-[2-[(6S)-2-amino-4-hydroxy-5,6,7,8-tetrahydropyrido[6,5-d]pyrimidin-6-yl]ethyl]benzoyl]amino]pentanedioic acid
@<TRIPOS>ATOM
      1 C1          1.9222    1.3675   -8.1624 C.ar      1 <0>        -0.1242
      2 C2          1.4371    0.9142   -9.3717 C.ar      1 <0>        -0.0831
      3 C3          0.2179    1.3923   -9.8545 C.ar      1 <0>        -0.1084
      4 C4         -0.5054    2.3226   -9.1066 C.ar      1 <0>        -0.0646
      5 C5         -0.0118    2.7635   -7.8961 C.ar      1 <0>        -0.1277
      6 C6          1.1974    2.2856   -7.4232 C.ar      1 <0>        -0.0772
      7 C7          1.7305    2.7717   -6.1001 C.3       1 <0>        -0.0785
      8 C8          1.2231    1.8610   -4.9802 C.3       1 <0>        -0.1096
      9 C9          1.7643    2.3546   -3.6370 C.3       1 <0>        -0.1034
     10 H1          1.4930    3.4127   -3.5072 H         1 <0>         0.0775
     11 C10         1.1599    1.5231   -2.5044 C.3       1 <0>        -0.0270
     12 C11         1.8481    1.8328   -1.2042 C.2       1 <0>        -0.3581
     13 C12         3.1075    2.4151   -1.1647 C.2       1 <0>         0.4936
     14 N1          3.6738    2.6625    0.0144 N.2       1 <0>        -0.6216
     15 C13         3.0457    2.3611    1.1412 C.2       1 <0>         0.6557
     16 N2          1.8402    1.8123    1.1404 N.am      1 <0>        -0.6219
     17 C14         1.2196    1.5309   -0.0014 C.2       1 <0>         0.4907
     18 O1         -0.0110    0.9628    0.0073 O.2       1 <0>        -0.6270
     19 N3          3.6625    2.6316    2.3501 N.pl3     1 <0>        -0.8549
     20 N4          3.7776    2.7422   -2.3338 N.pl3     1 <0>        -0.7138
     21 C15         3.2901    2.1968   -3.6083 C.3       1 <0>         0.1237
     22 C16        -0.3048    0.9157  -11.1528 C.2       1 <0>         0.5512
     23 O2         -1.3667    1.3342  -11.5710 O.2       1 <0>        -0.5562
     24 N5          0.3961    0.0174  -11.8726 N.am      1 <0>        -0.6919
     25 C17        -0.1219   -0.4548  -13.1591 C.3       1 <0>         0.1034
     26 H2         -0.6551    0.3842  -13.6300 H         1 <0>         0.0844
     27 C18         1.0406   -0.9278  -14.0343 C.3       1 <0>        -0.0845
     28 C19         1.9411    0.2619  -14.3726 C.3       1 <0>        -0.1524
     29 C20         3.0861   -0.2039  -15.2347 C.2       1 <0>         0.4613
     30 O3          3.1729   -1.3680  -15.5465 O.co2     1 <0>        -0.6388
     31 O4          4.0095    0.6744  -15.6562 O.co2     1 <0>        -0.7912
     32 C21        -1.0744   -1.5995  -12.9275 C.2       1 <0>         0.4645
     33 O5         -1.2977   -1.9816  -11.8032 O.co2     1 <0>        -0.6394
     34 O6         -1.6747   -2.1945  -13.9702 O.co2     1 <0>        -0.7699
     35 H3          2.8677    1.0020   -7.7899 H         1 <0>         0.1229
     36 H4          2.0015    0.1940   -9.9455 H         1 <0>         0.1287
     37 H5         -1.4496    2.6962   -9.4744 H         1 <0>         0.1324
     38 H6         -0.5703    3.4836   -7.3166 H         1 <0>         0.1212
     39 H7          2.8302    2.7524   -6.1185 H         1 <0>         0.0715
     40 H8          1.3848    3.8005   -5.9211 H         1 <0>         0.0711
     41 H9          0.1234    1.8802   -4.9619 H         1 <0>         0.0740
     42 H10         1.5689    0.8322   -5.1592 H         1 <0>         0.0710
     43 H11         0.0894    1.7574   -2.4085 H         1 <0>         0.0768
     44 H12         1.2823    0.4533   -2.7292 H         1 <0>         0.0632
     45 H13         3.1535    2.3870    3.2941 H         1 <0>         0.4353
     46 H14         4.6617    3.0912    2.3670 H         1 <0>         0.4519
     47 H15         4.6604    3.3982   -2.3181 H         1 <0>         0.4305
     48 H16         3.5501    1.1311   -3.6903 H         1 <0>         0.0694
     49 H17         3.7317    2.7479   -4.4517 H         1 <0>         0.0938
     50 H18         1.3571   -0.3613  -11.4942 H         1 <0>         0.4061
     51 H19         1.6236   -1.6862  -13.4911 H         1 <0>         0.0583
     52 H20         0.6459   -1.3648  -14.9634 H         1 <0>         0.0846
     53 H21         1.3581    1.0203  -14.9157 H         1 <0>         0.0600
     54 H22         2.3358    0.6989  -13.4435 H         1 <0>         0.0579
     55 H23         1.3395    1.5834    2.0927 H         1 <0>         0.4388
@<TRIPOS>BOND
     1    1    6 ar
     2    1    2 ar
     3    1   35 1
     4    2    3 ar
     5    2   36 1
     6    3    4 ar
     7    3   22 1
     8    4    5 ar
     9    4   37 1
    10    5    6 ar
    11    5   38 1
    12    6    7 1
    13    7    8 1
    14    7   39 1
    15    7   40 1
    16    8    9 1
    17    8   41 1
    18    8   42 1
    19    9   10 1
    20    9   21 1
    21    9   11 1
    22   11   12 1
    23   11   43 1
    24   11   44 1
    25   12   17 1
    26   12   13 2
    27   13   14 1
    28   13   20 1
    29   14   15 2
    30   15   16 1
    31   15   19 1
    32   16   17 am
    33   16   55 1
    34   17   18 2
    35   19   45 1
    36   19   46 1
    37   20   21 1
    38   20   47 1
    39   21   48 1
    40   21   49 1
    41   22   23 2
    42   22   24 am
    43   24   25 1
    44   24   50 1
    45   25   26 1
    46   25   27 1
    47   25   32 1
    48   27   28 1
    49   27   51 1
    50   27   52 1
    51   28   29 1
    52   28   53 1
    53   28   54 1
    54   29   30 2
    55   29   31 1
    56   32   33 2
    57   32   34 1
@<TRIPOS>MOLECULE
ZINC01540998
   50    52     0     0     0
SMALL
USER_CHARGES

@<TRIPOS>ATOM
      1 C1         -0.0167    1.3794    0.0096 C.ar      1 <0>        -0.1237
      2 C2          1.1667    2.0884    0.0021 C.ar      1 <0>        -0.0650
      3 C3          2.3848    1.4070   -0.0132 C.ar      1 <0>        -0.1108
      4 C4          2.3966    0.0113   -0.0208 C.ar      1 <0>        -0.0853
      5 C5          1.2061   -0.6856   -0.0132 C.ar      1 <0>        -0.1248
      6 C6          0.0021   -0.0041    0.0020 C.ar      1 <0>        -0.0756
      7 C7         -1.2946   -0.7719    0.0103 C.3       1 <0>        -0.0645
      8 C8         -1.7472   -1.0241   -1.4293 C.3       1 <0>        -0.0478
      9 C9         -3.0439   -1.7919   -1.4210 C.2       1 <0>        -0.0685
     10 C10        -3.1874   -3.1243   -1.5149 C.2       1 <0>        -0.0065
     11 N1         -4.5200   -3.4490   -1.4711 N.pl3     1 <0>        -0.5467
     12 H1         -4.8743   -4.3505   -1.5209 H         1 <0>         0.4184
     13 C11        -5.2735   -2.3187   -1.3465 C.2       1 <0>         0.3387
     14 C12        -4.3891   -1.2318   -1.3029 C.2       1 <0>        -0.3095
     15 C13        -4.9114    0.0734   -1.1699 C.2       1 <0>         0.5795
     16 O1         -4.1726    1.0423   -1.1322 O.2       1 <0>        -0.5172
     17 N2         -6.2532    0.2199   -1.0861 N.am      1 <0>        -0.6639
     18 H2         -6.6382    1.1055   -0.9942 H         1 <0>         0.4126
     19 C14        -7.0663   -0.8737   -1.1307 C.2       1 <0>         0.6511
     20 N3         -6.5926   -2.0916   -1.2621 N.2       1 <0>        -0.5927
     21 N4         -8.4242   -0.6953   -1.0434 N.pl3     1 <0>        -0.8265
     22 C15         3.6569    2.1603   -0.0218 C.2       1 <0>         0.5510
     23 O2          3.6435    3.3757   -0.0155 O.2       1 <0>        -0.5556
     24 N5          4.8314    1.4994   -0.0366 N.am      1 <0>        -0.6767
     25 C16         6.0919    2.2459   -0.0451 C.3       1 <0>         0.0726
     26 H3          5.9814    3.1523    0.5501 H         1 <0>         0.0776
     27 C17         7.2027    1.3778    0.5494 C.3       1 <0>        -0.0801
     28 C18         6.9032    1.1060    2.0250 C.3       1 <0>        -0.1779
     29 C19         7.9973    0.2510    2.6105 C.2       1 <0>         0.4911
     30 O3          8.9302   -0.1078    1.9123 O.co2     1 <0>        -0.6973
     31 O4          7.9496   -0.0820    3.7824 O.co2     1 <0>        -0.7205
     32 C20         6.4472    2.6155   -1.4622 C.2       1 <0>         0.4957
     33 O5          5.7154    2.2860   -2.3799 O.co2     1 <0>        -0.6965
     34 O6          7.4666    3.2441   -1.6909 O.co2     1 <0>        -0.7009
     35 H4         -0.9598    1.9054    0.0260 H         1 <0>         0.1238
     36 H5          1.1508    3.1682    0.0077 H         1 <0>         0.1319
     37 H6          3.3358   -0.5219   -0.0330 H         1 <0>         0.1274
     38 H7          1.2138   -1.7656   -0.0191 H         1 <0>         0.1227
     39 H8         -1.1489   -1.7256    0.5176 H         1 <0>         0.0683
     40 H9         -2.0557   -0.1941    0.5345 H         1 <0>         0.0708
     41 H10        -1.8929   -0.0704   -1.9367 H         1 <0>         0.0817
     42 H11        -0.9861   -1.6019   -1.9536 H         1 <0>         0.0745
     43 H12        -2.3774   -3.8322   -1.6109 H         1 <0>         0.1800
     44 H13        -8.7912    0.1979   -0.9515 H         1 <0>         0.4143
     45 H14        -9.0171   -1.4624   -1.0735 H         1 <0>         0.4255
     46 H15         4.8421    0.5294   -0.0416 H         1 <0>         0.3891
     47 H16         7.2537    0.4325    0.0090 H         1 <0>         0.0548
     48 H17         8.1565    1.8981    0.4621 H         1 <0>         0.0788
     49 H18         6.8522    2.0513    2.5654 H         1 <0>         0.0521
     50 H19         5.9494    0.5857    2.1123 H         1 <0>         0.0504
@<TRIPOS>BOND
     1    1    6 ar
     2    1    2 ar
     3    1   35 1
     4    2    3 ar
     5    2   36 1
     6    3    4 ar
     7    3   22 1
     8    4    5 ar
     9    4   37 1
    10    5    6 ar
    11    5   38 1
    12    6    7 1
    13    7    8 1
    14    7   39 1
    15    7   40 1
    16    8    9 1
    17    8   41 1
    18    8   42 1
    19    9   14 1
    20    9   10 2
    21   10   11 1
    22   10   43 1
    23   11   12 1
    24   11   13 1
    25   13   20 1
    26   13   14 2
    27   14   15 1
    28   15   16 2
    29   15   17 am
    30   17   18 1
    31   17   19 1
    32   19   20 2
    33   19   21 1
    34   21   44 1
    35   21   45 1
    36   22   23 2
    37   22   24 am
    38   24   25 1
    39   24   46 1
    40   25   26 1
    41   25   27 1
    42   25   32 1
    43   27   28 1
    44   27   47 1
    45   27   48 1
    46   28   29 1
    47   28   49 1
    48   28   50 1
    49   29   30 2
    50   29   31 1
    51   32   33 2
    52   32   34 1
@<TRIPOS>MOLECULE
ZINC13737686
   50    51     0     0     0
SMALL
USER_CHARGES

@<TRIPOS>ATOM
      1 C1         -0.0168    1.3845    0.0097 C.2       1 <0>        -0.0345
      2 C2          1.2069    2.0008    0.0013 C.2       1 <0>        -0.2886
      3 C3          2.3396    1.2181   -0.0137 C.2       1 <0>         0.0841
      4 S1          1.7495   -0.3548   -0.0166 S.3       1 <0>         0.1930
      5 C4          0.0021   -0.0041    0.0020 C.2       1 <0>        -0.2609
      6 C5         -1.0880   -0.9095    0.0082 C.2       1 <0>         0.6012
      7 O1         -2.2302   -0.4873    0.0221 O.2       1 <0>        -0.5544
      8 N1         -0.8606   -2.2380   -0.0012 N.am      1 <0>        -0.6805
      9 C6         -1.9875   -3.1740    0.0052 C.3       1 <0>         0.0740
     10 H1         -2.8108   -2.7555   -0.5736 H         1 <0>         0.0783
     11 C7         -1.5507   -4.5023   -0.6160 C.3       1 <0>        -0.0803
     12 C8         -1.2113   -4.2876   -2.0923 C.3       1 <0>        -0.1783
     13 C9         -0.7811   -5.5959   -2.7042 C.2       1 <0>         0.4915
     14 O2         -0.7489   -6.6063   -2.0227 O.co2     1 <0>        -0.6978
     15 O3         -0.4651   -5.6439   -3.8808 O.co2     1 <0>        -0.7207
     16 C10        -2.4386   -3.4074    1.4241 C.2       1 <0>         0.4959
     17 O4         -1.8714   -2.8439    2.3446 O.co2     1 <0>        -0.6964
     18 O5         -3.3709   -4.1595    1.6515 O.co2     1 <0>        -0.7018
     19 N2          3.6615    1.6324   -0.0245 N.pl3     1 <0>        -0.6984
     20 C11         4.7397    0.6407   -0.0401 C.3       1 <0>         0.1147
     21 C12         6.0915    1.3573   -0.0496 C.3       1 <0>        -0.1195
     22 C13         7.2176    0.3217   -0.0659 C.3       1 <0>        -0.0252
     23 C14         8.5491    1.0275   -0.0753 C.2       1 <0>        -0.3997
     24 C15         9.2369    1.2556    1.1080 C.2       1 <0>         0.4905
     25 N3         10.4182    1.8837    1.0786 N.2       1 <0>        -0.6252
     26 C16        10.9443    2.2920   -0.0567 C.2       1 <0>         0.6643
     27 N4         10.3093    2.0928   -1.2438 N.am      1 <0>        -0.6617
     28 C17         9.1180    1.4600   -1.2773 C.2       1 <0>         0.5558
     29 O6          8.5441    1.2727   -2.3386 O.2       1 <0>        -0.5433
     30 N5         12.1554    2.9310   -0.0430 N.pl3     1 <0>        -0.8223
     31 N6          8.7046    0.8367    2.3108 N.pl3     1 <0>        -0.8272
     32 H2         -0.9400    1.9446    0.0258 H         1 <0>         0.1424
     33 H3          1.2814    3.0782    0.0060 H         1 <0>         0.1232
     34 H4          0.0492   -2.5742   -0.0122 H         1 <0>         0.3862
     35 H5         -0.6715   -4.8769   -0.0918 H         1 <0>         0.0546
     36 H6         -2.3606   -5.2269   -0.5310 H         1 <0>         0.0786
     37 H7         -2.0904   -3.9130   -2.6166 H         1 <0>         0.0523
     38 H8         -0.4014   -3.5630   -2.1773 H         1 <0>         0.0508
     39 H9          3.8731    2.5790   -0.0218 H         1 <0>         0.4034
     40 H10         4.6680    0.0121    0.8475 H         1 <0>         0.0658
     41 H11         4.6507    0.0211   -0.9324 H         1 <0>         0.0692
     42 H12         6.1632    1.9860   -0.9372 H         1 <0>         0.0711
     43 H13         6.1806    1.9770    0.8427 H         1 <0>         0.0624
     44 H14         7.1459   -0.3070    0.8217 H         1 <0>         0.0617
     45 H15         7.1286   -0.2979   -0.9582 H         1 <0>         0.0784
     46 H16        12.6165    3.0784    0.7975 H         1 <0>         0.4274
     47 H17        12.5522    3.2361   -0.8739 H         1 <0>         0.4150
     48 H18         7.8481    0.3819    2.3299 H         1 <0>         0.4174
     49 H19         9.1871    0.9972    3.1368 H         1 <0>         0.4048
     50 H20        10.7160    2.4027   -2.0681 H         1 <0>         0.4091
@<TRIPOS>BOND
     1    1    5 2
     2    1    2 1
     3    1   32 1
     4    2    3 2
     5    2   33 1
     6    3    4 1
     7    3   19 1
     8    4    5 1
     9    5    6 1
    10    6    7 2
    11    6    8 am
    12    8    9 1
    13    8   34 1
    14    9   10 1
    15    9   11 1
    16    9   16 1
    17   11   12 1
    18   11   35 1
    19   11   36 1
    20   12   13 1
    21   12   37 1
    22   12   38 1
    23   13   14 2
    24   13   15 1
    25   16   17 2
    26   16   18 1
    27   19   20 1
    28   19   39 1
    29   20   21 1
    30   20   40 1
    31   20   41 1
    32   21   22 1
    33   21   42 1
    34   21   43 1
    35   22   23 1
    36   22   44 1
    37   22   45 1
    38   23   28 1
    39   23   24 2
    40   24   25 1
    41   24   31 1
    42   25   26 2
    43   26   27 1
    44   26   30 1
    45   27   28 am
    46   27   50 1
    47   28   29 2
    48   30   46 1
    49   30   47 1
    50   31   48 1
    51   31   49 1
@<TRIPOS>MOLECULE
ZINC45336938
   53    55     0     0     0
SMALL
USER_CHARGES

@<TRIPOS>ATOM
      1 C1         -0.0163    1.3517    0.0095 C.2       1 <0>        -0.1768
      2 C2          1.1755    2.0360    0.0018 C.2       1 <0>        -0.0963
      3 C3          2.3196    1.2528   -0.0134 C.2       1 <0>        -0.2094
      4 S1          1.6361   -0.3937   -0.0157 S.3       1 <0>         0.2096
      5 C4          0.0021   -0.0041    0.0020 C.2       1 <0>        -0.2196
      6 C5         -1.1743   -0.9460    0.0089 C.3       1 <0>        -0.0297
      7 C6         -1.5870   -1.2570   -1.4311 C.3       1 <0>        -0.1178
      8 C7         -2.7813   -2.2133   -1.4241 C.3       1 <0>        -0.1143
      9 C8         -3.1941   -2.5244   -2.8642 C.3       1 <0>        -0.0526
     10 C9         -4.3704   -3.4663   -2.8573 C.2       1 <0>         0.0370
     11 C10        -4.2902   -4.8040   -2.7642 C.2       1 <0>        -0.1078
     12 C11        -5.6613   -5.3102   -2.7948 C.2       1 <0>        -0.3147
     13 C12        -6.4932   -4.1875   -2.9087 C.2       1 <0>         0.3414
     14 N1         -5.6868   -3.0877   -2.9392 N.pl3     1 <0>        -0.5424
     15 H1         -5.9984   -2.1719   -3.0107 H         1 <0>         0.4182
     16 N2         -7.8221   -4.3613   -2.9591 N.2       1 <0>        -0.5894
     17 C13        -8.3540   -5.5609   -2.9036 C.2       1 <0>         0.6497
     18 N3         -7.5936   -6.6872   -2.7927 N.am      1 <0>        -0.6629
     19 H2         -8.0206   -7.5573   -2.7547 H         1 <0>         0.4125
     20 C14        -6.2456   -6.5945   -2.7360 C.2       1 <0>         0.5827
     21 O1         -5.5533   -7.5930   -2.6373 O.2       1 <0>        -0.5304
     22 N4         -9.7197   -5.6847   -2.9586 N.pl3     1 <0>        -0.8257
     23 C15         3.7248    1.6700   -0.0245 C.2       1 <0>         0.5873
     24 O2          4.0082    2.8535   -0.0209 O.2       1 <0>        -0.5411
     25 N5          4.7028    0.7428   -0.0389 N.am      1 <0>        -0.6724
     26 C16         6.1072    1.1597   -0.0500 C.3       1 <0>         0.0736
     27 H3          6.2216    2.0669    0.5432 H         1 <0>         0.0799
     28 C17         6.9739    0.0483    0.5454 C.3       1 <0>        -0.0829
     29 C18         6.6191   -0.1395    2.0218 C.3       1 <0>        -0.1782
     30 C19         7.4728   -1.2342    2.6083 C.2       1 <0>         0.4916
     31 O3          8.2893   -1.8108    1.9101 O.co2     1 <0>        -0.6973
     32 O4          7.3470   -1.5433    3.7809 O.co2     1 <0>        -0.7192
     33 C20         6.5400    1.4290   -1.4682 C.2       1 <0>         0.4986
     34 O5          7.4028    2.2600   -1.6949 O.co2     1 <0>        -0.6996
     35 O6          6.0274    0.8157   -2.3889 O.co2     1 <0>        -0.6973
     36 H4         -0.9545    1.8864    0.0258 H         1 <0>         0.1269
     37 H5          1.2182    3.1151    0.0068 H         1 <0>         0.1444
     38 H6         -0.8964   -1.8705    0.5150 H         1 <0>         0.0786
     39 H7         -2.0089   -0.4811    0.5338 H         1 <0>         0.0793
     40 H8         -1.8648   -0.3325   -1.9372 H         1 <0>         0.0671
     41 H9         -0.7524   -1.7219   -1.9560 H         1 <0>         0.0723
     42 H10        -2.5035   -3.1379   -0.9181 H         1 <0>         0.0721
     43 H11        -3.6159   -1.7485   -0.8993 H         1 <0>         0.0616
     44 H12        -3.4719   -1.5998   -3.3703 H         1 <0>         0.0742
     45 H13        -2.3595   -2.9892   -3.3890 H         1 <0>         0.0948
     46 H14        -3.3877   -5.3917   -2.6830 H         1 <0>         0.1522
     47 H15       -10.2757   -4.8937   -3.0371 H         1 <0>         0.4265
     48 H16       -10.1291   -6.5632   -2.9188 H         1 <0>         0.4142
     49 H17         4.4769   -0.2005   -0.0418 H         1 <0>         0.3916
     50 H18         6.7924   -0.8819    0.0070 H         1 <0>         0.0614
     51 H19         8.0256    0.3204    0.4562 H         1 <0>         0.0743
     52 H20         6.8007    0.7907    2.5602 H         1 <0>         0.0532
     53 H21         5.5674   -0.4116    2.1110 H         1 <0>         0.0512
@<TRIPOS>BOND
     1    1    5 2
     2    1    2 1
     3    1   36 1
     4    2    3 2
     5    2   37 1
     6    3    4 1
     7    3   23 1
     8    4    5 1
     9    5    6 1
    10    6    7 1
    11    6   38 1
    12    6   39 1
    13    7    8 1
    14    7   40 1
    15    7   41 1
    16    8    9 1
    17    8   42 1
    18    8   43 1
    19    9   10 1
    20    9   44 1
    21    9   45 1
    22   10   14 1
    23   10   11 2
    24   11   12 1
    25   11   46 1
    26   12   20 1
    27   12   13 2
    28   13   14 1
    29   13   16 1
    30   14   15 1
    31   16   17 2
    32   17   18 1
    33   17   22 1
    34   18   19 1
    35   18   20 am
    36   20   21 2
    37   22   47 1
    38   22   48 1
    39   23   24 2
    40   23   25 am
    41   25   26 1
    42   25   49 1
    43   26   27 1
    44   26   28 1
    45   26   33 1
    46   28   29 1
    47   28   50 1
    48   28   51 1
    49   29   30 1
    50   29   52 1
    51   29   53 1
    52   30   31 2
    53   30   32 1
    54   33   34 2
    55   33   35 1
@<TRIPOS>MOLECULE
ZINC03806987
   50    52     0     0     0
SMALL
USER_CHARGES
2-[[5-[2-(3-amino-5-oxo-7-thia-2,4,10-triazabicyclo[4.4.0]deca-2,11-dien-8-yl)ethyl]-2-thienyl]carbonylamino]pentanedioic acid
@<TRIPOS>ATOM
      1 C1          1.0149    1.6756    3.1672 C.2       1 <0>        -0.1661
      2 C2          1.5424    1.0490    4.2687 C.2       1 <0>        -0.1003
      3 C3          1.0023   -0.1796    4.6151 C.2       1 <0>        -0.1917
      4 S1         -0.2480   -0.3968    3.3611 S.3       1 <0>         0.1522
      5 C4          0.0000    1.0800    2.4877 C.2       1 <0>        -0.1830
      6 C5         -0.7288    1.5792    1.2668 C.3       1 <0>        -0.0321
      7 C6         -0.0127    1.0858    0.0080 C.3       1 <0>        -0.0944
      8 C7         -0.7527    1.5927   -1.2315 C.3       1 <0>        -0.1066
      9 H1         -0.8633    2.6758   -1.1793 H         1 <0>         0.0991
     10 C8          0.0274    1.2082   -2.4987 C.3       1 <0>         0.1265
     11 N1         -0.6442    1.7866   -3.6584 N.pl3     1 <0>        -0.7090
     12 C9         -1.9772    1.5770   -3.9428 C.2       1 <0>         0.4800
     13 C10        -2.8890    1.1440   -2.9951 C.2       1 <0>        -0.3919
     14 C11        -4.2310    0.9699   -3.3619 C.2       1 <0>         0.5744
     15 O1         -5.0556    0.5933   -2.5430 O.2       1 <0>        -0.5253
     16 N2         -4.5956    1.2262   -4.6358 N.am      1 <0>        -0.6593
     17 H2         -5.5484    1.1124   -4.9172 H         1 <0>         0.4191
     18 C12        -3.6628    1.6400   -5.5364 C.2       1 <0>         0.6610
     19 N3         -2.4053    1.8064   -5.1980 N.2       1 <0>        -0.6167
     20 N4         -4.0461    1.8893   -6.8301 N.pl3     1 <0>        -0.8229
     21 S2         -2.3899    0.8072   -1.3378 S.3       1 <0>        -0.0406
     22 C13         1.3637   -1.0685    5.7232 C.2       1 <0>         0.5950
     23 O2          2.2539   -0.7530    6.4909 O.2       1 <0>        -0.5383
     24 N5          0.7103   -2.2351    5.8920 N.am      1 <0>        -0.6789
     25 C14         1.0715   -3.1235    6.9995 C.3       1 <0>         0.0997
     26 H3          1.3585   -2.5266    7.8652 H         1 <0>         0.0886
     27 C15        -0.1279   -4.0020    7.3606 C.3       1 <0>        -0.0868
     28 C16        -1.2595   -3.1240    7.8986 C.3       1 <0>        -0.1542
     29 C17        -2.4409   -3.9893    8.2544 C.2       1 <0>         0.4620
     30 O3         -2.3837   -5.1855    8.0940 O.co2     1 <0>        -0.6386
     31 C18         2.2277   -3.9971    6.5860 C.2       1 <0>         0.4655
     32 O4          2.7014   -3.8888    5.4797 O.co2     1 <0>        -0.6387
     33 H4          1.3995    2.6326    2.8466 H         1 <0>         0.1299
     34 H5          2.3463    1.4918    4.8379 H         1 <0>         0.1429
     35 H6         -0.7436    2.6691    1.2728 H         1 <0>         0.0852
     36 H7         -1.7514    1.2020    1.2746 H         1 <0>         0.0868
     37 H8          0.0021   -0.0041    0.0020 H         1 <0>         0.0848
     38 H9          1.0099    1.4631    0.0003 H         1 <0>         0.0862
     39 H10         1.0438    1.5964   -2.4338 H         1 <0>         0.1034
     40 H11         0.0564    0.1228   -2.5946 H         1 <0>         0.0845
     41 H12        -0.1271    2.3459   -4.2590 H         1 <0>         0.4077
     42 H13        -4.9722    1.7702   -7.0930 H         1 <0>         0.4147
     43 H14        -3.3911    2.1847   -7.4817 H         1 <0>         0.4269
     44 H15         0.0008   -2.4865    5.2802 H         1 <0>         0.3920
     45 H16        -0.4705   -4.5323    6.4721 H         1 <0>         0.0587
     46 H17         0.1664   -4.7231    8.1232 H         1 <0>         0.0867
     47 H18        -0.9169   -2.5937    8.7872 H         1 <0>         0.0612
     48 H19        -1.5539   -2.4029    7.1360 H         1 <0>         0.0577
     49 O5         -3.5568   -3.4312    8.7493 O.co2     1 <0>        -0.7899
     50 O6          2.7314   -4.8956    7.4467 O.co2     1 <0>        -0.7669
@<TRIPOS>BOND
     1    1    5 2
     2    1    2 1
     3    1   33 1
     4    2    3 2
     5    2   34 1
     6    3    4 1
     7    3   22 1
     8    4    5 1
     9    5    6 1
    10    6    7 1
    11    6   35 1
    12    6   36 1
    13    7    8 1
    14    7   37 1
    15    7   38 1
    16    8    9 1
    17    8   21 1
    18    8   10 1
    19   10   11 1
    20   10   39 1
    21   10   40 1
    22   11   12 1
    23   11   41 1
    24   12   19 1
    25   12   13 2
    26   13   14 1
    27   13   21 1
    28   14   15 2
    29   14   16 am
    30   16   17 1
    31   16   18 1
    32   18   19 2
    33   18   20 1
    34   20   42 1
    35   20   43 1
    36   22   23 2
    37   22   24 am
    38   24   25 1
    39   24   44 1
    40   25   26 1
    41   25   27 1
    42   25   31 1
    43   27   28 1
    44   27   45 1
    45   27   46 1
    46   28   29 1
    47   28   47 1
    48   28   48 1
    49   29   30 2
    50   29   49 1
    51   31   32 2
    52   31   50 1
