@<TRIPOS>MOLECULE
ZINC28475732
   25    25     0     0     0
SMALL
USER_CHARGES

@<TRIPOS>ATOM
      1 C1         -0.0167    1.3823    0.0096 C.ar      1 <0>        -0.1630
      2 C2          1.1808    2.0721    0.0019 C.ar      1 <0>         0.0435
      3 N1          2.3308    1.4269   -0.0130 N.ar      1 <0>        -0.5074
      4 C3          2.3867    0.1094   -0.0206 C.ar      1 <0>         0.0719
      5 C4          1.2303   -0.6473   -0.0132 C.ar      1 <0>        -0.0526
      6 C5          0.0021   -0.0041    0.0020 C.ar      1 <0>        -0.0149
      7 C6         -1.2819   -0.7930    0.0105 C.3       1 <0>        -0.0639
      8 C7         -1.7307   -1.0523   -1.4290 C.3       1 <0>        -1.0220
      9 O1         -1.9423    0.1948   -2.0939 O.3       1 <0>        -0.5122
     10 P1         -0.4423   -1.9977   -2.3063 P.3       1 <0>         2.2115
     11 O2          0.8540   -1.1262   -2.4269 O.2       1 <0>        -1.1579
     12 O3         -0.1195   -3.3061   -1.5074 O.3       1 <0>        -1.1611
     13 O4         -0.9543   -2.3733   -3.7385 O.3       1 <0>        -1.1748
     14 P2         -3.2839   -2.0067   -1.4187 P.3       1 <0>         2.2736
     15 O5         -3.0551   -3.3550   -0.6998 O.2       1 <0>        -1.0953
     16 O6         -4.3758   -1.2054   -0.6752 O.3       1 <0>        -1.1337
     17 O7         -3.7562   -2.2795   -2.9335 O.3       1 <0>        -0.8691
     18 H1         -0.9553    1.9163    0.0259 H         1 <0>         0.1048
     19 H2          1.1748    3.1521    0.0078 H         1 <0>         0.1262
     20 H3          3.3473   -0.3840   -0.0331 H         1 <0>         0.1355
     21 H4          1.2825   -1.7260   -0.0195 H         1 <0>         0.1390
     22 H5         -1.1205   -1.7443    0.5177 H         1 <0>         0.0838
     23 H6         -2.0522   -0.2277    0.5351 H         1 <0>         0.0448
     24 H7         -2.6165    0.7514   -1.6807 H         1 <0>         0.3122
     25 H8         -4.5783   -2.7837   -3.0044 H         1 <0>         0.3812
@<TRIPOS>BOND
     1    1    6 ar
     2    1    2 ar
     3    1   18 1
     4    2    3 ar
     5    2   19 1
     6    3    4 ar
     7    4    5 ar
     8    4   20 1
     9    5    6 ar
    10    5   21 1
    11    6    7 1
    12    7    8 1
    13    7   22 1
    14    7   23 1
    15    8    9 1
    16    8   10 1
    17    8   14 1
    18    9   24 1
    19   10   11 2
    20   10   12 1
    21   10   13 1
    22   14   15 2
    23   14   16 1
    24   14   17 1
    25   17   25 1
@<TRIPOS>MOLECULE
ZINC28475732
   26    26     0     0     0
SMALL
USER_CHARGES
[1-hydroxy-1-phosphono-2-(4-pyridyl)ethyl]phosphonic acid
@<TRIPOS>ATOM
      1 C1         -0.8379    5.4552    0.5691 C.ar      1 <0>        -0.0517
      2 C2         -0.4961    6.5072    1.3978 C.ar      1 <0>         0.0762
      3 N1         -1.2887    6.8720    2.3866 N.ar      1 <0>        -0.4871
      4 C3         -2.4270    6.2515    2.6279 C.ar      1 <0>         0.0713
      5 C4         -2.8320    5.1875    1.8444 C.ar      1 <0>        -0.0855
      6 C5         -2.0248    4.7752    0.7952 C.ar      1 <0>        -0.0791
      7 C6         -2.4310    3.6195   -0.0826 C.3       1 <0>        -0.0368
      8 C7         -3.1015    4.1530   -1.3502 C.3       1 <0>        -1.0245
      9 O1         -3.6162    3.0597   -2.1130 O.3       1 <0>        -0.5798
     10 P1         -4.4671    5.2700   -0.8912 P.3       1 <0>         2.2389
     11 O2         -5.1156    5.7861   -2.1174 O.2       1 <0>        -1.0749
     12 O3         -5.5476    4.4634   -0.0115 O.3       1 <0>        -0.9359
     13 O4         -3.8872    6.5017   -0.0318 O.3       1 <0>        -1.0523
     14 P2         -1.8780    5.0664   -2.3464 P.3       1 <0>         2.2421
     15 O5         -2.4739    5.4240   -3.6531 O.2       1 <0>        -1.0736
     16 O6         -1.4463    6.4080   -1.5681 O.3       1 <0>        -1.0516
     17 O7         -0.5811    4.1422   -2.5829 O.3       1 <0>        -0.9362
     18 H1         -0.1869    5.1643   -0.2420 H         1 <0>         0.1168
     19 H2          0.4287    7.0395    1.2308 H         1 <0>         0.1348
     20 H3         -3.0501    6.5788    3.4470 H         1 <0>         0.1305
     21 H4         -3.7658    4.6838    2.0465 H         1 <0>         0.1058
     22 H5         -1.5395    3.0364   -0.3569 H         1 <0>         0.0543
     23 H6         -3.1369    2.9755    0.4624 H         1 <0>         0.0529
     24 H7         -4.1358    3.2489   -3.0639 H         1 <0>         0.3947
     25 H8          0.2688    4.5260   -3.1663 H         1 <0>         0.4265
     26 H9         -6.4476    4.9757    0.3594 H         1 <0>         0.4243
@<TRIPOS>BOND
     1    1    6 ar
     2    1    2 ar
     3    1   18 1
     4    2    3 ar
     5    2   19 1
     6    3    4 ar
     7    4    5 ar
     8    4   20 1
     9    5    6 ar
    10    5   21 1
    11    6    7 1
    12    7    8 1
    13    7   22 1
    14    7   23 1
    15    8    9 1
    16    8   10 1
    17    8   14 1
    18    9   24 1
    19   10   11 2
    20   10   12 1
    21   10   13 1
    22   12   26 1
    23   14   15 2
    24   14   16 1
    25   14   17 1
    26   17   25 1
@<TRIPOS>MOLECULE
ZINC49590055
   30    29     0     0     0
SMALL
USER_CHARGES

@<TRIPOS>ATOM
      1 C1          0.4234    0.6696    1.2681 C.3       1 <0>        -0.1515
      2 C2          0.3432   -0.8199    0.9279 C.3       1 <0>        -0.1230
      3 C3          1.0151   -1.0713   -0.4235 C.3       1 <0>        -0.1160
      4 C4          0.9349   -2.5609   -0.7636 C.3       1 <0>        -0.1431
      5 C5          1.6068   -2.8123   -2.1150 C.3       1 <0>        -0.0324
      6 N1          1.5298   -4.2424   -2.4416 N.4       1 <0>        -0.4306
      7 C6          2.0549   -4.4645   -3.7955 C.3       1 <0>        -1.1467
      8 P1          3.8385   -4.0884   -3.8247 P.3       1 <0>         2.1290
      9 O1          4.0534   -2.5567   -3.5755 O.2       1 <0>        -1.1453
     10 O2          4.5632   -4.9069   -2.7025 O.3       1 <0>        -1.1218
     11 O3          4.4316   -4.4785   -5.2213 O.3       1 <0>        -1.1260
     12 P2          1.7929   -6.2048   -4.2710 P.3       1 <0>         2.2711
     13 O4          2.5302   -7.1274   -3.2749 O.2       1 <0>        -1.0700
     14 O5          0.2814   -6.5235   -4.2462 O.3       1 <0>        -1.1108
     15 O6          2.3684   -6.4481   -5.7548 O.3       1 <0>        -0.8694
     16 H1          1.4685    0.9748    1.3196 H         1 <0>         0.0569
     17 H2         -0.0860    1.2465    0.4962 H         1 <0>         0.0523
     18 H3         -0.0553    0.8488    2.2308 H         1 <0>         0.0502
     19 H4          0.8525   -1.3968    1.6998 H         1 <0>         0.0641
     20 H5         -0.7020   -1.1251    0.8764 H         1 <0>         0.0587
     21 H6          0.5058   -0.4944   -1.1954 H         1 <0>         0.0660
     22 H7          2.0602   -0.7661   -0.3719 H         1 <0>         0.0790
     23 H8          1.4442   -3.1378    0.0083 H         1 <0>         0.0818
     24 H9         -0.1102   -2.8660   -0.8151 H         1 <0>         0.0685
     25 H10         1.0975   -2.2354   -2.8869 H         1 <0>         0.1026
     26 H11         2.6519   -2.5071   -2.0635 H         1 <0>         0.1714
     27 H12         2.0777   -4.7690   -1.7778 H         1 <0>         0.4268
     28 H13         1.5348   -3.8136   -4.4982 H         1 <0>         0.1187
     29 H14         2.2627   -7.3548   -6.0738 H         1 <0>         0.4011
     30 H15         0.5684   -4.5457   -2.3998 H         1 <0>         0.3884
@<TRIPOS>BOND
     1    1    2 1
     2    1   16 1
     3    1   17 1
     4    1   18 1
     5    2    3 1
     6    2   19 1
     7    2   20 1
     8    3    4 1
     9    3   21 1
    10    3   22 1
    11    4    5 1
    12    4   23 1
    13    4   24 1
    14    5    6 1
    15    5   25 1
    16    5   26 1
    17    6    7 1
    18    6   27 1
    19    6   30 1
    20    7    8 1
    21    7   12 1
    22    7   28 1
    23    8    9 2
    24    8   10 1
    25    8   11 1
    26   12   13 2
    27   12   14 1
    28   12   15 1
    29   15   29 1
@<TRIPOS>MOLECULE
ZINC19300304
   22    21     0     0     0
SMALL
USER_CHARGES

@<TRIPOS>ATOM
      1 C1         -0.0187    1.5258    0.0104 C.3       1 <0>        -0.1185
      2 C2          0.0021   -0.0041    0.0020 C.3       1 <0>        -0.0408
      3 N1         -1.3761   -0.5125    0.0124 N.4       1 <0>        -0.6310
      4 C3          1.4167    2.0553   -0.0004 C.3       1 <0>        -1.0269
      5 O1          2.1079    1.5820    1.1573 O.3       1 <0>        -0.5144
      6 P1          2.2700    1.4674   -1.5003 P.3       1 <0>         2.1967
      7 O2          2.4042   -0.0926   -1.4472 O.2       1 <0>        -1.1670
      8 O3          1.4432    1.8777   -2.7662 O.3       1 <0>        -1.1485
      9 O4          3.6959    2.1119   -1.5764 O.3       1 <0>        -1.1553
     10 P2          1.3920    3.8782    0.0096 P.3       1 <0>         2.2769
     11 O5          0.6448    4.3900   -1.2421 O.2       1 <0>        -1.0901
     12 O6          0.6688    4.3764    1.2807 O.3       1 <0>        -1.1288
     13 O7          2.9024    4.4354   -0.0018 O.3       1 <0>        -0.8701
     14 H1         -0.5459    1.8868   -0.8726 H         1 <0>         0.0955
     15 H2         -0.5289    1.8773    0.9072 H         1 <0>         0.0522
     16 H3          0.5123   -0.3556   -0.8948 H         1 <0>         0.1852
     17 H4          0.5293   -0.3651    0.8851 H         1 <0>         0.1182
     18 H5         -1.8484   -0.1871    0.8426 H         1 <0>         0.4103
     19 H6         -1.8641   -0.1783   -0.8050 H         1 <0>         0.4276
     20 H7          1.7085    1.8573    1.9938 H         1 <0>         0.3203
     21 H8          2.9657    5.4003    0.0028 H         1 <0>         0.3891
     22 H9         -1.3624   -1.5214    0.0069 H         1 <0>         0.4193
@<TRIPOS>BOND
     1    1    2 1
     2    1    4 1
     3    1   14 1
     4    1   15 1
     5    2    3 1
     6    2   16 1
     7    2   17 1
     8    3   18 1
     9    3   19 1
    10    3   22 1
    11    4    5 1
    12    4    6 1
    13    4   10 1
    14    5   20 1
    15    6    7 2
    16    6    8 1
    17    6    9 1
    18   10   11 2
    19   10   12 1
    20   10   13 1
    21   13   21 1
@<TRIPOS>MOLECULE
ZINC19300304
   23    22     0     0     0
SMALL
USER_CHARGES

@<TRIPOS>ATOM
      1 C1         -0.0187    1.5258    0.0104 C.3       1 <0>        -0.1242
      2 C2          0.0021   -0.0041    0.0020 C.3       1 <0>        -0.0472
      3 N1         -1.3761   -0.5125    0.0124 N.4       1 <0>        -0.6316
      4 C3          1.4167    2.0553   -0.0004 C.3       1 <0>        -1.0318
      5 O1          2.0856    1.5945   -1.1761 O.3       1 <0>        -0.5221
      6 P1          1.3920    3.8782    0.0096 P.3       1 <0>         2.2276
      7 O2          0.7821    4.3776    1.3384 O.2       1 <0>        -1.0565
      8 O3          2.8954    4.4361   -0.1341 O.3       1 <0>        -0.8881
      9 O4          0.5382    4.3881   -1.1728 O.3       1 <0>        -1.0946
     10 P2          2.2984    1.4515    1.4765 P.3       1 <0>         2.2737
     11 O5          1.5753    1.9497    2.7476 O.2       1 <0>        -1.0615
     12 O6          2.3193   -0.0934    1.4680 O.3       1 <0>        -1.0950
     13 O7          3.8089    2.0087    1.4650 O.3       1 <0>        -0.8903
     14 H1         -0.5459    1.8868   -0.8726 H         1 <0>         0.0778
     15 H2         -0.5289    1.8773    0.9072 H         1 <0>         0.1040
     16 H3          0.5123   -0.3556   -0.8948 H         1 <0>         0.1236
     17 H4          0.5293   -0.3651    0.8851 H         1 <0>         0.1884
     18 H5         -1.8484   -0.1871    0.8426 H         1 <0>         0.4312
     19 H6         -1.8641   -0.1783   -0.8050 H         1 <0>         0.4182
     20 H7          1.6703    1.8788   -2.0019 H         1 <0>         0.3525
     21 H8          4.3380    1.7263    2.2236 H         1 <0>         0.4097
     22 H9         -1.3624   -1.5214    0.0069 H         1 <0>         0.4269
     23 H10         2.9583    5.4010   -0.1362 H         1 <0>         0.4092
@<TRIPOS>BOND
     1    1    2 1
     2    1    4 1
     3    1   14 1
     4    1   15 1
     5    2    3 1
     6    2   16 1
     7    2   17 1
     8    3   18 1
     9    3   19 1
    10    3   22 1
    11    4    5 1
    12    4    6 1
    13    4   10 1
    14    5   20 1
    15    6    7 2
    16    6    8 1
    17    6    9 1
    18    8   23 1
    19   10   11 2
    20   10   12 1
    21   10   13 1
    22   13   21 1
@<TRIPOS>MOLECULE
ZINC19702112
   25    24     0     0     0
SMALL
USER_CHARGES

@<TRIPOS>ATOM
      1 C1         -0.0187    1.5258    0.0104 C.3       1 <0>        -0.1759
      2 C2          0.0021   -0.0041    0.0020 C.3       1 <0>        -0.0833
      3 C3         -1.4333   -0.5336    0.0129 C.3       1 <0>        -1.0339
      4 O1         -2.1022   -0.0728    1.1886 O.3       1 <0>        -0.5167
      5 P1         -2.3150    0.0702   -1.4640 P.3       1 <0>         2.2152
      6 O2         -2.4480    1.6296   -1.3916 O.2       1 <0>        -1.1788
      7 O3         -1.5126   -0.3263   -2.7498 O.3       1 <0>        -1.1577
      8 O4         -3.7422   -0.5735   -1.5198 O.3       1 <0>        -1.1666
      9 P2         -1.4086   -2.3565    0.0029 P.3       1 <0>         2.2738
     10 O5         -0.6854   -2.8547   -1.2683 O.2       1 <0>        -1.0933
     11 O6         -0.6613   -2.8683    1.2545 O.3       1 <0>        -1.1320
     12 O7         -2.9190   -2.9137    0.0143 O.3       1 <0>        -0.8704
     13 C4          1.4167    2.0553   -0.0004 C.3       1 <0>        -0.0092
     14 N1          1.3968    3.5242    0.0076 N.4       1 <0>        -0.6314
     15 H1         -0.5459    1.8868   -0.8726 H         1 <0>         0.1464
     16 H2         -0.5289    1.8773    0.9072 H         1 <0>         0.0701
     17 H3          0.5123   -0.3556   -0.8948 H         1 <0>         0.0809
     18 H4          0.5293   -0.3651    0.8851 H         1 <0>         0.0367
     19 H5         -1.6869   -0.3571    2.0143 H         1 <0>         0.3156
     20 H6         -2.9823   -3.8786    0.0097 H         1 <0>         0.3862
     21 H7          1.9439    1.6943    0.8826 H         1 <0>         0.1140
     22 H8          1.9269    1.7038   -0.8972 H         1 <0>         0.1279
     23 H9          0.9088    3.8584   -0.8098 H         1 <0>         0.4384
     24 H10         0.9245    3.8496    0.8378 H         1 <0>         0.4270
     25 H11         2.3434    3.8734    0.0005 H         1 <0>         0.4169
@<TRIPOS>BOND
     1    1    2 1
     2    1   13 1
     3    1   15 1
     4    1   16 1
     5    2    3 1
     6    2   17 1
     7    2   18 1
     8    3    4 1
     9    3    5 1
    10    3    9 1
    11    4   19 1
    12    5    6 2
    13    5    7 1
    14    5    8 1
    15    9   10 2
    16    9   11 1
    17    9   12 1
    18   12   20 1
    19   13   14 1
    20   13   21 1
    21   13   22 1
    22   14   23 1
    23   14   24 1
    24   14   25 1
@<TRIPOS>MOLECULE
ZINC19702112
   26    25     0     0     0
SMALL
USER_CHARGES

@<TRIPOS>ATOM
      1 C1         -0.0187    1.5258    0.0104 C.3       1 <0>        -0.1859
      2 C2          0.0021   -0.0041    0.0020 C.3       1 <0>        -0.0882
      3 C3         -1.4333   -0.5336    0.0129 C.3       1 <0>        -1.0366
      4 O1         -2.1245   -0.0603   -1.1448 O.3       1 <0>        -0.5252
      5 P1         -1.4086   -2.3565    0.0029 P.3       1 <0>         2.2264
      6 O2         -0.7735   -2.8701    1.3143 O.2       1 <0>        -1.0603
      7 O3         -2.9145   -2.9129   -0.1181 O.3       1 <0>        -0.8891
      8 O4         -0.5776   -2.8536   -1.2010 O.3       1 <0>        -1.0981
      9 P2         -2.2866    0.0543    1.5127 P.3       1 <0>         2.2817
     10 O5         -1.5394   -0.4576    2.7644 O.2       1 <0>        -1.0685
     11 O6         -2.3075    1.5991    1.5213 O.3       1 <0>        -1.1022
     12 O7         -3.7970   -0.5030    1.5242 O.3       1 <0>        -0.8936
     13 C4          1.4167    2.0553   -0.0004 C.3       1 <0>        -0.0083
     14 N1          1.3968    3.5242    0.0076 N.4       1 <0>        -0.6326
     15 H1         -0.5459    1.8868   -0.8726 H         1 <0>         0.0758
     16 H2         -0.5289    1.8773    0.9072 H         1 <0>         0.1491
     17 H3          0.5123   -0.3556   -0.8948 H         1 <0>         0.0625
     18 H4          0.5293   -0.3651    0.8851 H         1 <0>         0.0893
     19 H5         -1.7251   -0.3356   -1.9813 H         1 <0>         0.3483
     20 H6         -4.3116   -0.2289    2.2956 H         1 <0>         0.4064
     21 H7          1.9439    1.6943    0.8826 H         1 <0>         0.1313
     22 H8          1.9269    1.7038   -0.8972 H         1 <0>         0.1196
     23 H9          0.9088    3.8584   -0.8098 H         1 <0>         0.4291
     24 H10         0.9245    3.8496    0.8378 H         1 <0>         0.4382
     25 H11         2.3434    3.8734    0.0005 H         1 <0>         0.4241
     26 H12        -2.9776   -3.8778   -0.1293 H         1 <0>         0.4066
@<TRIPOS>BOND
     1    1    2 1
     2    1   13 1
     3    1   15 1
     4    1   16 1
     5    2    3 1
     6    2   17 1
     7    2   18 1
     8    3    4 1
     9    3    5 1
    10    3    9 1
    11    4   19 1
    12    5    6 2
    13    5    7 1
    14    5    8 1
    15    7   26 1
    16    9   10 2
    17    9   11 1
    18    9   12 1
    19   12   20 1
    20   13   14 1
    21   13   21 1
    22   13   22 1
    23   14   23 1
    24   14   24 1
    25   14   25 1
@<TRIPOS>MOLECULE
ZINC20330769
   25    25     0     0     0
SMALL
USER_CHARGES

@<TRIPOS>ATOM
      1 C1         -0.0167    1.3776    0.0096 C.ar      1 <0>        -0.2189
      2 C2          1.1849    2.0698    0.0019 C.ar      1 <0>        -0.0778
      3 C3          2.3651    1.3426   -0.0133 C.ar      1 <0>        -0.0974
      4 C4          2.3054   -0.0383   -0.0202 C.ar      1 <0>         0.2026
      5 N1          1.1443   -0.6632   -0.0129 N.ar      1 <0>        -0.4933
      6 C5          0.0021   -0.0041    0.0020 C.ar      1 <0>         0.0694
      7 C6          3.6964    2.0488   -0.0227 C.3       1 <0>        -0.0587
      8 C7          4.1610    2.2805    1.4165 C.3       1 <0>        -1.0232
      9 O1          3.2001    3.0846    2.1036 O.3       1 <0>        -0.5126
     10 P1          4.3300    0.6765    2.2662 P.3       1 <0>         2.2096
     11 O2          2.9224   -0.0003    2.3889 O.2       1 <0>        -1.1551
     12 O3          5.2860   -0.2523    1.4430 O.3       1 <0>        -1.1595
     13 O4          4.9267    0.9037    3.6968 O.3       1 <0>        -1.1738
     14 P2          5.7714    3.1348    1.4051 P.3       1 <0>         2.2736
     15 O5          6.8103    2.2654    0.6622 O.2       1 <0>        -1.0950
     16 O6          5.6282    4.4942    0.6850 O.3       1 <0>        -1.1341
     17 O7          6.2603    3.3787    2.9196 O.3       1 <0>        -0.8692
     18 H1         -0.9552    1.9117    0.0259 H         1 <0>         0.1028
     19 H2          1.2009    3.1496    0.0072 H         1 <0>         0.1051
     20 H3          3.2203   -0.6121   -0.0320 H         1 <0>         0.1604
     21 H4         -0.9294   -0.5505    0.0083 H         1 <0>         0.1257
     22 H5          4.4293    1.4355   -0.5468 H         1 <0>         0.0836
     23 H6          3.5953    3.0079   -0.5308 H         1 <0>         0.0435
     24 H7          3.0587    3.9546    1.7058 H         1 <0>         0.3114
     25 H8          7.1126    3.8300    2.9899 H         1 <0>         0.3810
@<TRIPOS>BOND
     1    1    6 ar
     2    1    2 ar
     3    1   18 1
     4    2    3 ar
     5    2   19 1
     6    3    4 ar
     7    3    7 1
     8    4    5 ar
     9    4   20 1
    10    5    6 ar
    11    6   21 1
    12    7    8 1
    13    7   22 1
    14    7   23 1
    15    8    9 1
    16    8   10 1
    17    8   14 1
    18    9   24 1
    19   10   11 2
    20   10   12 1
    21   10   13 1
    22   14   15 2
    23   14   16 1
    24   14   17 1
    25   17   25 1
@<TRIPOS>MOLECULE
ZINC20330769
   26    26     0     0     0
SMALL
USER_CHARGES

@<TRIPOS>ATOM
      1 C1         -0.0167    1.3776    0.0096 C.ar      1 <0>        -0.1773
      2 C2          1.1849    2.0698    0.0019 C.ar      1 <0>         0.0283
      3 C3          2.3651    1.3426   -0.0133 C.ar      1 <0>        -0.1221
      4 C4          2.3054   -0.0383   -0.0202 C.ar      1 <0>         0.1000
      5 N1          1.1443   -0.6632   -0.0129 N.ar      1 <0>        -0.5148
      6 C5          0.0021   -0.0041    0.0020 C.ar      1 <0>         0.0733
      7 C6          3.6964    2.0488   -0.0227 C.3       1 <0>        -0.0571
      8 C7          4.1610    2.2805    1.4165 C.3       1 <0>        -1.0245
      9 O1          4.2934    1.0232    2.0825 O.3       1 <0>        -0.5216
     10 P1          5.7714    3.1348    1.4051 P.3       1 <0>         2.2278
     11 O2          5.6018    4.5455    0.7983 O.2       1 <0>        -1.0644
     12 O3          6.3222    3.2618    2.9126 O.3       1 <0>        -0.8884
     13 O4          6.7773    2.3263    0.5557 O.3       1 <0>        -1.1006
     14 P2          2.9351    3.3063    2.2930 P.3       1 <0>         2.2653
     15 O5          2.7919    4.6658    1.5729 O.2       1 <0>        -1.0708
     16 O6          1.5703    2.5824    2.3027 O.3       1 <0>        -1.0817
     17 O7          3.4240    3.5502    3.8075 O.3       1 <0>        -0.8946
     18 H1         -0.9552    1.9117    0.0259 H         1 <0>         0.1177
     19 H2          1.2009    3.1496    0.0072 H         1 <0>         0.1345
     20 H3          3.2203   -0.6121   -0.0320 H         1 <0>         0.1325
     21 H4         -0.9294   -0.5505    0.0083 H         1 <0>         0.1343
     22 H5          4.4293    1.4355   -0.5468 H         1 <0>         0.0682
     23 H6          3.5953    3.0079   -0.5308 H         1 <0>         0.0890
     24 H7          4.9310    0.4247    1.6698 H         1 <0>         0.3450
     25 H8          2.8185    4.0897    4.3342 H         1 <0>         0.4006
     26 H9          7.1776    3.7072    2.9826 H         1 <0>         0.4013
@<TRIPOS>BOND
     1    1    6 ar
     2    1    2 ar
     3    1   18 1
     4    2    3 ar
     5    2   19 1
     6    3    4 ar
     7    3    7 1
     8    4    5 ar
     9    4   20 1
    10    5    6 ar
    11    6   21 1
    12    7    8 1
    13    7   22 1
    14    7   23 1
    15    8    9 1
    16    8   10 1
    17    8   14 1
    18    9   24 1
    19   10   11 2
    20   10   12 1
    21   10   13 1
    22   12   26 1
    23   14   15 2
    24   14   16 1
    25   14   17 1
    26   17   25 1
@<TRIPOS>MOLECULE
ZINC19632644
   24    24     0     0     0
SMALL
USER_CHARGES

@<TRIPOS>ATOM
      1 C1         -0.0161    1.3371    0.0094 C.2       1 <0>        -0.0737
      2 C2          1.2587    1.7711   -0.0004 C.2       1 <0>         0.1498
      3 N1          2.0558    0.6583   -0.0140 N.pl3     1 <0>        -0.3745
      4 C3          1.2397   -0.4176   -0.0120 C.cat     1 <0>         0.2406
      5 N2          0.0021   -0.0041    0.0020 N.pl3     1 <0>        -0.4786
      6 C4          3.5206    0.6384   -0.0281 C.3       1 <0>         0.0924
      7 C5          4.0443    0.6237    1.4094 C.3       1 <0>        -1.0263
      8 O1          3.5585   -0.5400    2.0814 O.3       1 <0>        -0.4899
      9 P1          3.4652    2.1157    2.2823 P.3       1 <0>         2.1813
     10 O2          3.9977    3.3916    1.5455 O.2       1 <0>        -1.1524
     11 O3          1.8988    2.1370    2.2974 O.3       1 <0>        -1.1434
     12 O4          4.0015    2.1007    3.7543 O.3       1 <0>        -1.1336
     13 P2          5.8670    0.5990    1.3918 P.3       1 <0>         2.2548
     14 O5          6.3958    0.5842    2.8434 O.2       1 <0>        -1.0648
     15 O6          6.3578   -0.6655    0.6520 O.3       1 <0>        -1.1160
     16 O7          6.4143    1.9101    0.6346 O.3       1 <0>        -0.8803
     17 H1         -0.8984    1.9597    0.0252 H         1 <0>         0.2014
     18 H2          1.5887    2.7994    0.0016 H         1 <0>         0.2106
     19 H3          1.5585   -1.4495   -0.0206 H         1 <0>         0.2318
     20 H4          3.8668   -0.2536   -0.5501 H         1 <0>         0.0931
     21 H5          3.8911    1.5261   -0.5408 H         1 <0>         0.1169
     22 H6          3.8286   -1.3728    1.6708 H         1 <0>         0.3234
     23 H7          7.3787    1.9634    0.5875 H         1 <0>         0.3974
     24 H8         -0.7811   -0.5763    0.0069 H         1 <0>         0.4400
@<TRIPOS>BOND
     1    1    5 1
     2    1    2 2
     3    1   17 1
     4    2    3 1
     5    2   18 1
     6    3    4 1
     7    3    6 1
     8    4    5 2
     9    4   19 1
    10    5   24 1
    11    6    7 1
    12    6   20 1
    13    6   21 1
    14    7    8 1
    15    7    9 1
    16    7   13 1
    17    8   22 1
    18    9   10 2
    19    9   11 1
    20    9   12 1
    21   13   14 2
    22   13   15 1
    23   13   16 1
    24   16   23 1
@<TRIPOS>MOLECULE
ZINC19632644
   25    25     0     0     0
SMALL
USER_CHARGES

@<TRIPOS>ATOM
      1 C1         -0.0161    1.3371    0.0094 C.2       1 <0>        -0.0465
      2 C2          1.2587    1.7711   -0.0004 C.2       1 <0>         0.1297
      3 N1          2.0558    0.6583   -0.0140 N.pl3     1 <0>        -0.3879
      4 C3          1.2397   -0.4176   -0.0120 C.cat     1 <0>         0.2566
      5 N2          0.0021   -0.0041    0.0020 N.pl3     1 <0>        -0.4766
      6 C4          3.5206    0.6384   -0.0281 C.3       1 <0>         0.1109
      7 C5          4.0443    0.6237    1.4094 C.3       1 <0>        -1.0469
      8 O1          3.5585   -0.5400    2.0814 O.3       1 <0>        -0.5165
      9 P1          5.8670    0.5990    1.3918 P.3       1 <0>         2.2229
     10 O2          6.3941    1.9153    0.7783 O.2       1 <0>        -1.0481
     11 O3          6.4162    0.4512    2.8980 O.3       1 <0>        -0.8862
     12 O4          6.3577   -0.5966    0.5452 O.3       1 <0>        -1.0860
     13 P2          3.4652    2.1157    2.2823 P.3       1 <0>         2.2619
     14 O5          3.9904    3.3740    1.5557 O.2       1 <0>        -1.0559
     15 O6          1.9204    2.1367    2.2972 O.3       1 <0>        -1.0853
     16 O7          4.0163    2.1002    3.7950 O.3       1 <0>        -0.8893
     17 H1         -0.8984    1.9597    0.0252 H         1 <0>         0.2095
     18 H2          1.5887    2.7994    0.0016 H         1 <0>         0.2166
     19 H3          1.5585   -1.4495   -0.0206 H         1 <0>         0.2384
     20 H4          3.8668   -0.2536   -0.5501 H         1 <0>         0.1166
     21 H5          3.8911    1.5261   -0.5408 H         1 <0>         0.1390
     22 H6          3.8286   -1.3728    1.6708 H         1 <0>         0.3535
     23 H7          3.7464    2.8663    4.3198 H         1 <0>         0.4102
     24 H8         -0.7811   -0.5763    0.0069 H         1 <0>         0.4478
     25 H9          7.3807    0.4311    2.9648 H         1 <0>         0.4117
@<TRIPOS>BOND
     1    1    5 1
     2    1    2 2
     3    1   17 1
     4    2    3 1
     5    2   18 1
     6    3    4 1
     7    3    6 1
     8    4    5 2
     9    4   19 1
    10    5   24 1
    11    6    7 1
    12    6   20 1
    13    6   21 1
    14    7    8 1
    15    7    9 1
    16    7   13 1
    17    8   22 1
    18    9   10 2
    19    9   11 1
    20    9   12 1
    21   11   25 1
    22   13   14 2
    23   13   15 1
    24   13   16 1
    25   16   23 1
@<TRIPOS>MOLECULE
ZINC19632644
   24    24     0     0     0
SMALL
USER_CHARGES

@<TRIPOS>ATOM
      1 C1         -0.0161    1.3371    0.0094 C.2       1 <0>        -0.0484
      2 C2          1.2587    1.7711   -0.0004 C.2       1 <0>        -0.0574
      3 N1          2.0558    0.6583   -0.0140 N.pl3     1 <0>        -0.4442
      4 C3          1.2397   -0.4176   -0.0120 C.2       1 <0>         0.2267
      5 N2          0.0021   -0.0041    0.0020 N.2       1 <0>        -0.5107
      6 C4          3.5206    0.6384   -0.0281 C.3       1 <0>         0.1074
      7 C5          4.0443    0.6237    1.4094 C.3       1 <0>        -1.0361
      8 O1          3.5904    1.7933    2.0937 O.3       1 <0>        -0.5145
      9 P1          3.4246   -0.8609    2.2667 P.3       1 <0>         2.2520
     10 O2          3.9534   -0.8757    3.7183 O.2       1 <0>        -1.0836
     11 O3          1.8148   -0.8390    2.2822 O.3       1 <0>        -0.8855
     12 O4          3.9153   -2.1254    1.5269 O.3       1 <0>        -1.0671
     13 P2          5.8670    0.5990    1.3918 P.3       1 <0>         2.2593
     14 O5          6.3578   -0.6655    0.6520 O.2       1 <0>        -1.0711
     15 O6          6.3922    1.8572    0.6652 O.3       1 <0>        -1.1070
     16 O7          6.4181    0.5835    2.9045 O.3       1 <0>        -0.8745
     17 H1         -0.8984    1.9597    0.0252 H         1 <0>         0.1551
     18 H2          1.5887    2.7994    0.0016 H         1 <0>         0.1547
     19 H3          1.5585   -1.4495   -0.0206 H         1 <0>         0.1983
     20 H4          3.8668   -0.2536   -0.5501 H         1 <0>         0.1142
     21 H5          3.8911    1.5261   -0.5408 H         1 <0>         0.0887
     22 H6          3.8831    2.6226    1.6918 H         1 <0>         0.3465
     23 H7          7.3827    0.5700    2.9716 H         1 <0>         0.3986
     24 H8          1.4153   -1.6010    2.7237 H         1 <0>         0.3987
@<TRIPOS>BOND
     1    1    5 1
     2    1    2 2
     3    1   17 1
     4    2    3 1
     5    2   18 1
     6    3    4 1
     7    3    6 1
     8    4    5 2
     9    4   19 1
    10    6    7 1
    11    6   20 1
    12    6   21 1
    13    7    8 1
    14    7    9 1
    15    7   13 1
    16    8   22 1
    17    9   10 2
    18    9   11 1
    19    9   12 1
    20   11   24 1
    21   13   14 2
    22   13   15 1
    23   13   16 1
    24   16   23 1
@<TRIPOS>MOLECULE
ZINC19632644
   23    23     0     0     0
SMALL
USER_CHARGES

@<TRIPOS>ATOM
      1 C1         -0.0162    1.3425    0.0094 C.2       1 <0>        -0.0922
      2 N1          1.2535    1.7747   -0.0004 N.2       1 <0>        -0.5179
      3 C2          2.0579    0.7472   -0.0136 C.2       1 <0>         0.1430
      4 N2          1.3175   -0.3822   -0.0126 N.pl3     1 <0>        -0.4240
      5 C3          0.0021   -0.0041    0.0020 C.2       1 <0>         0.0722
      6 C4          1.8271   -1.7557   -0.0258 C.3       1 <0>         0.1252
      7 C5          2.0187   -2.2424    1.4121 C.3       1 <0>        -1.0399
      8 P1          0.4203   -2.1957    2.2874 P.3       1 <0>         2.1998
      9 O1         -0.0629   -0.7107    2.4135 O.2       1 <0>        -1.1549
     10 O2         -0.6397   -3.0233    1.4838 O.3       1 <0>        -1.1598
     11 O3          0.5898   -2.8128    3.7174 O.3       1 <0>        -1.1709
     12 P2          2.6528   -3.9515    1.3957 P.3       1 <0>         2.2770
     13 O4          1.6421   -4.8688    0.6718 O.2       1 <0>        -1.0930
     14 O5          4.0074   -3.9911    0.6538 O.3       1 <0>        -1.1310
     15 O6          2.8544   -4.4636    2.9087 O.3       1 <0>        -0.8677
     16 O7          2.9535   -1.3939    2.0816 O.3       1 <0>        -0.5064
     17 H1         -0.8985    1.9651    0.0252 H         1 <0>         0.1455
     18 H2          3.1369    0.7926   -0.0240 H         1 <0>         0.1721
     19 H3         -0.8562   -0.6596    0.0072 H         1 <0>         0.1647
     20 H4          1.1141   -2.4029   -0.5365 H         1 <0>         0.0985
     21 H5          2.7828   -1.7836   -0.5492 H         1 <0>         0.0634
     22 H6          3.1904   -5.3678    2.9763 H         1 <0>         0.3832
     23 H7          3.8280   -1.3698    1.6696 H         1 <0>         0.3132
@<TRIPOS>BOND
     1    1    5 2
     2    1    2 1
     3    1   17 1
     4    2    3 2
     5    3    4 1
     6    3   18 1
     7    4    5 1
     8    4    6 1
     9    5   19 1
    10    6    7 1
    11    6   20 1
    12    6   21 1
    13    7    8 1
    14    7   12 1
    15    7   16 1
    16    8    9 2
    17    8   10 1
    18    8   11 1
    19   12   13 2
    20   12   14 1
    21   12   15 1
    22   15   22 1
    23   16   23 1
@<TRIPOS>MOLECULE
ZINC19632644
   23    23     0     0     0
SMALL
USER_CHARGES

@<TRIPOS>ATOM
      1 C1         -0.0161    1.3371    0.0094 C.2       1 <0>        -0.1021
      2 C2          1.2587    1.7711   -0.0004 C.2       1 <0>         0.0893
      3 N1          2.0558    0.6583   -0.0140 N.pl3     1 <0>        -0.4281
      4 C3          1.2397   -0.4176   -0.0120 C.2       1 <0>         0.1395
      5 N2          0.0021   -0.0041    0.0020 N.2       1 <0>        -0.5154
      6 C4          3.5206    0.6384   -0.0281 C.3       1 <0>         0.1107
      7 C5          4.0443    0.6237    1.4094 C.3       1 <0>        -1.0308
      8 O1          3.5585   -0.5400    2.0814 O.3       1 <0>        -0.4874
      9 P1          3.4652    2.1157    2.2823 P.3       1 <0>         2.1990
     10 O2          3.9977    3.3916    1.5455 O.2       1 <0>        -1.1715
     11 O3          1.8988    2.1370    2.2974 O.3       1 <0>        -1.1492
     12 O4          4.0015    2.1007    3.7543 O.3       1 <0>        -1.1559
     13 P2          5.8670    0.5990    1.3918 P.3       1 <0>         2.2619
     14 O5          6.3958    0.5842    2.8434 O.2       1 <0>        -1.0796
     15 O6          6.3578   -0.6655    0.6520 O.3       1 <0>        -1.1282
     16 O7          6.4143    1.9101    0.6346 O.3       1 <0>        -0.8780
     17 H1         -0.8984    1.9597    0.0252 H         1 <0>         0.1439
     18 H2          1.5887    2.7994    0.0016 H         1 <0>         0.1608
     19 H3          1.5585   -1.4495   -0.0206 H         1 <0>         0.1717
     20 H4          3.8668   -0.2536   -0.5501 H         1 <0>         0.0632
     21 H5          3.8911    1.5261   -0.5408 H         1 <0>         0.0840
     22 H6          3.8286   -1.3728    1.6708 H         1 <0>         0.3142
     23 H7          7.3787    1.9634    0.5875 H         1 <0>         0.3879
@<TRIPOS>BOND
     1    1    5 1
     2    1    2 2
     3    1   17 1
     4    2    3 1
     5    2   18 1
     6    3    4 1
     7    3    6 1
     8    4    5 2
     9    4   19 1
    10    6    7 1
    11    6   20 1
    12    6   21 1
    13    7    8 1
    14    7    9 1
    15    7   13 1
    16    8   22 1
    17    9   10 2
    18    9   11 1
    19    9   12 1
    20   13   14 2
    21   13   15 1
    22   13   16 1
    23   16   23 1
