@<TRIPOS>MOLECULE
ZINC00897244
   25    26     0     0     0
SMALL
USER_CHARGES

@<TRIPOS>ATOM
      1 C1         -0.0187    1.5258    0.0104 C.3       1 <0>        -0.1219
      2 C2          0.0021   -0.0041    0.0020 C.3       1 <0>        -0.4416
      3 C3          0.9183   -0.5578   -1.1267 C.3       1 <0>         0.0132
      4 H1          1.7655    0.1146   -1.2616 H         1 <0>         0.0850
      5 N1          1.4152   -1.8973   -0.7968 N.am      1 <0>        -0.4938
      6 C4          1.5639   -2.1961    0.6340 C.3       1 <0>        -0.3906
      7 H2          1.1313   -3.1348    0.9800 H         1 <0>         0.1773
      8 S1          0.9226   -0.6800    1.4567 S.o2      1 <0>         2.3341
      9 O1          2.0081    0.1818    1.7700 O.2       1 <0>        -0.9238
     10 O2         -0.0025   -1.0489    2.4704 O.2       1 <0>        -0.9249
     11 C5          3.0673   -2.2015    0.4210 C.3       1 <0>        -0.1782
     12 C6          2.7129   -2.1678   -1.0358 C.2       1 <0>         0.5110
     13 O3          3.3561   -2.3252   -2.0520 O.2       1 <0>        -0.4467
     14 C7          0.1332   -0.6267   -2.4112 C.2       1 <0>         0.5227
     15 O4          0.1177    0.3290   -3.1682 O.co2     1 <0>        -0.6824
     16 O5         -0.4864   -1.6381   -2.6935 O.co2     1 <0>        -0.6561
     17 C8         -1.4126   -0.5802   -0.0861 C.3       1 <0>        -0.1154
     18 H3          1.0039    1.9031    0.0027 H         1 <0>         0.0742
     19 H4         -0.5459    1.8868   -0.8726 H         1 <0>         0.0955
     20 H5         -0.5289    1.8773    0.9072 H         1 <0>         0.0686
     21 H6          3.5695   -1.3020    0.7768 H         1 <0>         0.1395
     22 H7          3.5574   -3.1223    0.7376 H         1 <0>         0.1229
     23 H8         -1.8843   -0.2455   -1.0100 H         1 <0>         0.0896
     24 H9         -1.3627   -1.6690   -0.0774 H         1 <0>         0.0746
     25 H10        -1.9986   -0.2365    0.7662 H         1 <0>         0.0671
@<TRIPOS>BOND
     1    1    2 1
     2    1   18 1
     3    1   19 1
     4    1   20 1
     5    2    8 1
     6    2    3 1
     7    2   17 1
     8    3    4 1
     9    3    5 1
    10    3   14 1
    11    5   12 am
    12    5    6 1
    13    6    7 1
    14    6    8 1
    15    6   11 1
    16    8    9 2
    17    8   10 2
    18   11   12 1
    19   11   21 1
    20   11   22 1
    21   12   13 2
    22   14   15 2
    23   14   16 1
    24   17   23 1
    25   17   24 1
    26   17   25 1
