@<TRIPOS>MOLECULE
ZINC04212651
   44    46     0     0     0
SMALL
USER_CHARGES
N-[5-chloro-4-[(4-chlorophenyl)-cyano-methyl]-2-methyl-phenyl]-2-hydroxy-3,5-diiodo-benzamide
@<TRIPOS>ATOM
      1 C1          1.6099    0.0811    0.3917 C.3       1 <0>        -0.1210
      2 C2          1.8519    1.5667    0.3172 C.ar      1 <0>        -0.0972
      3 C3          3.1405    2.0526    0.2097 C.ar      1 <0>        -0.0763
      4 C4          3.3639    3.4151    0.1418 C.ar      1 <0>        -0.0853
      5 C5          2.2976    4.2970    0.1812 C.ar      1 <0>        -0.0052
      6 C6          1.0057    3.8165    0.2828 C.ar      1 <0>        -0.1038
      7 C7          0.7795    2.4482    0.3570 C.ar      1 <0>         0.1661
      8 N1         -0.5261    1.9588    0.4658 N.am      1 <0>        -0.6670
      9 C8         -1.4520    2.6561    1.1536 C.2       1 <0>         0.5647
     10 O1         -1.1734    3.7461    1.6151 O.2       1 <0>        -0.4849
     11 C9         -2.8033    2.0970    1.3465 C.ar      1 <0>        -0.1612
     12 C10        -3.1277    0.8449    0.8178 C.ar      1 <0>        -0.0197
     13 C11        -4.3920    0.3277    1.0019 C.ar      1 <0>        -0.1228
     14 C12        -5.3441    1.0440    1.7099 C.ar      1 <0>        -0.0055
     15 C13        -5.0367    2.2828    2.2372 C.ar      1 <0>        -0.1448
     16 C14        -3.7672    2.8161    2.0659 C.ar      1 <0>         0.2278
     17 O2         -3.4619    4.0303    2.5885 O.3       1 <0>        -0.4605
     18 I1         -6.4863    3.3545    3.3046 I         1 <0>         0.0055
     19 I2         -4.8764   -1.5498    0.2086 I         1 <0>        -0.0074
     20 Cl1         2.5828    6.0073    0.0961 Cl        1 <0>        -0.0506
     21 C15         4.7711    3.9415    0.0241 C.3       1 <0>         0.0915
     22 H1          4.7441    5.0215   -0.1205 H         1 <0>         0.1370
     23 C16         5.4369    3.3090   -1.1263 C.1       1 <0>         0.2094
     24 N2          5.9508    2.8208   -2.0140 N.1       1 <0>        -0.4061
     25 C17         5.5338    3.6222    1.2840 C.ar      1 <0>        -0.0795
     26 C18         5.8374    2.3097    1.5940 C.ar      1 <0>        -0.0945
     27 C19         6.5419    2.0167    2.7465 C.ar      1 <0>        -0.1056
     28 C20         6.9334    3.0364    3.5957 C.ar      1 <0>        -0.0271
     29 C21         6.6244    4.3493    3.2877 C.ar      1 <0>        -0.1053
     30 C22         5.9248    4.6415    2.1321 C.ar      1 <0>        -0.0844
     31 Cl2         7.8125    2.6686    5.0467 Cl        1 <0>        -0.0636
     32 H2          1.4808   -0.3169   -0.6148 H         1 <0>         0.0786
     33 H3          2.4633   -0.4026    0.8670 H         1 <0>         0.0787
     34 H4          0.7107   -0.1117    0.9767 H         1 <0>         0.0680
     35 H5          3.9745    1.3671    0.1784 H         1 <0>         0.1380
     36 H6          0.1735    4.5044    0.3087 H         1 <0>         0.1579
     37 H7         -0.7663    1.1196    0.0429 H         1 <0>         0.4123
     38 H8         -2.3886    0.2830    0.2661 H         1 <0>         0.1414
     39 H9         -6.3322    0.6312    1.8498 H         1 <0>         0.1478
     40 H10        -3.6408    4.7710    1.9932 H         1 <0>         0.4058
     41 H11         5.5279    1.5134    0.9333 H         1 <0>         0.1310
     42 H12         6.7828    0.9916    2.9864 H         1 <0>         0.1377
     43 H13         6.9294    5.1457    3.9504 H         1 <0>         0.1399
     44 H14         5.6832    5.6663    1.8917 H         1 <0>         0.1400
@<TRIPOS>BOND
     1    1    2 1
     2    1   32 1
     3    1   33 1
     4    1   34 1
     5    2    7 ar
     6    2    3 ar
     7    3    4 ar
     8    3   35 1
     9    4    5 ar
    10    4   21 1
    11    5    6 ar
    12    5   20 1
    13    6    7 ar
    14    6   36 1
    15    7    8 1
    16    8    9 am
    17    8   37 1
    18    9   10 2
    19    9   11 1
    20   11   16 ar
    21   11   12 ar
    22   12   13 ar
    23   12   38 1
    24   13   14 ar
    25   13   19 1
    26   14   15 ar
    27   14   39 1
    28   15   16 ar
    29   15   18 1
    30   16   17 1
    31   17   40 1
    32   21   22 1
    33   21   23 1
    34   21   25 1
    35   23   24 3
    36   25   30 ar
    37   25   26 ar
    38   26   27 ar
    39   26   41 1
    40   27   28 ar
    41   27   42 1
    42   28   29 ar
    43   28   31 1
    44   29   30 ar
    45   29   43 1
    46   30   44 1
@<TRIPOS>MOLECULE
ZINC11678567
   44    46     0     0     0
SMALL
USER_CHARGES
N-[5-chloro-4-[(S)-(4-chlorophenyl)-cyano-methyl]-2-methyl-phenyl]-2-hydroxy-3,5-diiodo-benzamide
@<TRIPOS>ATOM
      1 C1          2.3707   -0.1034    0.2099 C.3       1 <0>        -0.1210
      2 C2          2.2984    1.4004    0.1432 C.ar      1 <0>        -0.0973
      3 C3          3.4545    2.1522    0.2229 C.ar      1 <0>        -0.0759
      4 C4          3.3897    3.5317    0.1623 C.ar      1 <0>        -0.0853
      5 C5          2.1665    4.1643    0.0216 C.ar      1 <0>        -0.0051
      6 C6          1.0069    3.4173   -0.0645 C.ar      1 <0>        -0.1042
      7 C7          1.0694    2.0314    0.0019 C.ar      1 <0>         0.1660
      8 N1         -0.1026    1.2726   -0.0790 N.am      1 <0>        -0.6668
      9 C8         -1.2507    1.7481    0.4428 C.2       1 <0>         0.5646
     10 O1         -1.2877    2.8707    0.9086 O.2       1 <0>        -0.4851
     11 C9         -2.4623    0.9068    0.4487 C.ar      1 <0>        -0.1612
     12 C10        -2.4241   -0.3838   -0.0856 C.ar      1 <0>        -0.0196
     13 C11        -3.5595   -1.1652   -0.0767 C.ar      1 <0>        -0.1229
     14 C12        -4.7401   -0.6769    0.4607 C.ar      1 <0>        -0.0055
     15 C13        -4.7915    0.5969    0.9915 C.ar      1 <0>        -0.1447
     16 C14        -3.6565    1.3951    0.9955 C.ar      1 <0>         0.2278
     17 O2         -3.7039    2.6445    1.5222 O.3       1 <0>        -0.4606
     18 I1         -6.5832    1.3220    1.7998 I         1 <0>         0.0055
     19 I2         -3.5003   -3.0999   -0.8782 I         1 <0>        -0.0073
     20 Cl1         2.0896    5.8970   -0.0535 Cl        1 <0>        -0.0507
     21 C15         4.6530    4.3486    0.2502 C.3       1 <0>         0.0915
     22 H1          4.3983    5.4069    0.3068 H         1 <0>         0.1369
     23 C16         5.4058    3.9601    1.4540 C.1       1 <0>         0.2084
     24 N2          5.9867    3.6602    2.3831 N.1       1 <0>        -0.4054
     25 C17         5.4980    4.1000   -0.9726 C.ar      1 <0>        -0.0787
     26 C18         6.0848    2.8635   -1.1672 C.ar      1 <0>        -0.0941
     27 C19         6.8553    2.6331   -2.2914 C.ar      1 <0>        -0.1054
     28 C20         7.0484    3.6438   -3.2163 C.ar      1 <0>        -0.0274
     29 C21         6.4655    4.8828   -3.0181 C.ar      1 <0>        -0.1055
     30 C22         5.6907    5.1102   -1.8964 C.ar      1 <0>        -0.0847
     31 Cl2         8.0223    3.3576   -4.6246 Cl        1 <0>        -0.0638
     32 H2          2.4847   -0.5067   -0.7963 H         1 <0>         0.0797
     33 H3          3.2248   -0.3994    0.8189 H         1 <0>         0.0781
     34 H4          1.4548   -0.4918    0.6553 H         1 <0>         0.0675
     35 H5          4.4104    1.6615    0.3325 H         1 <0>         0.1376
     36 H6          0.0531    3.9107   -0.1792 H         1 <0>         0.1585
     37 H7         -0.0901    0.4058   -0.5143 H         1 <0>         0.4125
     38 H8         -1.5061   -0.7686   -0.5047 H         1 <0>         0.1415
     39 H9         -5.6250   -1.2961    0.4640 H         1 <0>         0.1478
     40 H10        -3.9466    3.3308    0.8855 H         1 <0>         0.4059
     41 H11         5.9376    2.0760   -0.4430 H         1 <0>         0.1310
     42 H12         7.3101    1.6658   -2.4456 H         1 <0>         0.1377
     43 H13         6.6162    5.6722   -3.7395 H         1 <0>         0.1397
     44 H14         5.2359    6.0774   -1.7414 H         1 <0>         0.1399
@<TRIPOS>BOND
     1    1    2 1
     2    1   32 1
     3    1   33 1
     4    1   34 1
     5    2    7 ar
     6    2    3 ar
     7    3    4 ar
     8    3   35 1
     9    4    5 ar
    10    4   21 1
    11    5    6 ar
    12    5   20 1
    13    6    7 ar
    14    6   36 1
    15    7    8 1
    16    8    9 am
    17    8   37 1
    18    9   10 2
    19    9   11 1
    20   11   16 ar
    21   11   12 ar
    22   12   13 ar
    23   12   38 1
    24   13   14 ar
    25   13   19 1
    26   14   15 ar
    27   14   39 1
    28   15   16 ar
    29   15   18 1
    30   16   17 1
    31   17   40 1
    32   21   22 1
    33   21   23 1
    34   21   25 1
    35   23   24 3
    36   25   30 ar
    37   25   26 ar
    38   26   27 ar
    39   26   41 1
    40   27   28 ar
    41   27   42 1
    42   28   29 ar
    43   28   31 1
    44   29   30 ar
    45   29   43 1
    46   30   44 1
@<TRIPOS>MOLECULE
ZINC03156573
   31    32     0     0     0
SMALL
USER_CHARGES
3,5-dibromo-2-hydroxy-N-(4-methoxyphenyl)-benzamide
@<TRIPOS>ATOM
      1 C1         -6.9975   -0.3172   -1.1142 C.3       1 <0>         0.0261
      2 O1         -5.9340   -0.9411   -0.3920 O.3       1 <0>        -0.3165
      3 C2         -4.7675   -0.2498   -0.2911 C.ar      1 <0>         0.1180
      4 C3         -3.6943   -0.7974    0.3965 C.ar      1 <0>        -0.1329
      5 C4         -2.5094   -0.0959    0.4994 C.ar      1 <0>        -0.0770
      6 C5         -2.3921    1.1578   -0.0860 C.ar      1 <0>         0.1026
      7 C6         -3.4685    1.7075   -0.7697 C.ar      1 <0>        -0.1004
      8 C7         -4.6511    1.0026   -0.8762 C.ar      1 <0>        -0.1904
      9 N1         -1.1906    1.8698    0.0179 N.am      1 <0>        -0.6662
     10 C8         -0.0143    1.2120    0.0067 C.2       1 <0>         0.5630
     11 O2          0.0023   -0.0038   -0.0085 O.2       1 <0>        -0.4927
     12 C9          1.2529    1.9670    0.0068 C.ar      1 <0>        -0.1561
     13 C10         1.2383    3.3642    0.0243 C.ar      1 <0>        -0.0283
     14 C11         2.4260    4.0642    0.0248 C.ar      1 <0>        -0.1084
     15 C12         3.6360    3.3881    0.0081 C.ar      1 <0>        -0.0185
     16 C13         3.6643    2.0073   -0.0088 C.ar      1 <0>        -0.1298
     17 C14         2.4780    1.2871   -0.0047 C.ar      1 <0>         0.2186
     18 O3          2.5043   -0.0694   -0.0165 O.3       1 <0>        -0.4601
     19 Br1         5.3216    1.0969   -0.0303 Br        1 <0>        -0.0074
     20 Br2         2.4043    5.9549    0.0491 Br        1 <0>        -0.0197
     21 H1         -7.2571    0.6269   -0.6353 H         1 <0>         0.0561
     22 H2         -6.6790   -0.1290   -2.1395 H         1 <0>         0.0559
     23 H3         -7.8677   -0.9736   -1.1188 H         1 <0>         0.1013
     24 H4         -3.7857   -1.7725    0.8518 H         1 <0>         0.1363
     25 H5         -1.6740   -0.5224    1.0348 H         1 <0>         0.1476
     26 H6         -3.3794    2.6845   -1.2214 H         1 <0>         0.1294
     27 H7         -5.4869    1.4281   -1.4117 H         1 <0>         0.1335
     28 H8         -1.2051    2.8364    0.0978 H         1 <0>         0.4086
     29 H9          0.2978    3.8950    0.0377 H         1 <0>         0.1466
     30 H10         4.5619    3.9442    0.0086 H         1 <0>         0.1546
     31 H11         2.5078   -0.4551   -0.9032 H         1 <0>         0.4063
@<TRIPOS>BOND
     1    1    2 1
     2    1   21 1
     3    1   22 1
     4    1   23 1
     5    2    3 1
     6    3    8 ar
     7    3    4 ar
     8    4    5 ar
     9    4   24 1
    10    5    6 ar
    11    5   25 1
    12    6    7 ar
    13    6    9 1
    14    7    8 ar
    15    7   26 1
    16    8   27 1
    17    9   10 am
    18    9   28 1
    19   10   11 2
    20   10   12 1
    21   12   17 ar
    22   12   13 ar
    23   13   14 ar
    24   13   29 1
    25   14   15 ar
    26   14   20 1
    27   15   16 ar
    28   15   30 1
    29   16   17 ar
    30   16   19 1
    31   17   18 1
    32   18   31 1
@<TRIPOS>MOLECULE
ZINC04014104
   27    28     0     0     0
SMALL
USER_CHARGES
N-(4-chlorophenyl)-2-hydroxy-3,5-diiodo-benzamide
@<TRIPOS>ATOM
      1 C1         -5.9659    4.2999    0.8768 C.ar      1 <0>        -0.1306
      2 C2         -7.1637    4.9767    0.9978 C.ar      1 <0>        -0.0902
      3 C3         -7.3182    6.2220    0.4144 C.ar      1 <0>        -0.0475
      4 C4         -6.2718    6.7949   -0.2870 C.ar      1 <0>        -0.0903
      5 C5         -5.0702    6.1247   -0.4066 C.ar      1 <0>        -0.1069
      6 C6         -4.9124    4.8748    0.1779 C.ar      1 <0>         0.1477
      7 N1         -3.6964    4.1935    0.0580 N.am      1 <0>        -0.6696
      8 C7         -2.5369    4.8804    0.0521 C.2       1 <0>         0.5646
      9 O1         -2.5504    6.0963    0.0661 O.2       1 <0>        -0.4891
     10 C8         -1.2514    4.1574    0.0287 C.ar      1 <0>        -0.1606
     11 C9         -1.2313    2.7604    0.0069 C.ar      1 <0>        -0.0194
     12 C10        -0.0268    2.0904   -0.0101 C.ar      1 <0>        -0.1231
     13 C11         1.1658    2.7965   -0.0157 C.ar      1 <0>        -0.0061
     14 C12         1.1600    4.1774    0.0005 C.ar      1 <0>        -0.1448
     15 C13        -0.0434    4.8676    0.0226 C.ar      1 <0>         0.2267
     16 O2         -0.0506    6.2243    0.0385 O.3       1 <0>        -0.4609
     17 I1          2.9706    5.2313   -0.0088 I         1 <0>         0.0048
     18 I2          0.0011   -0.0042   -0.0363 I         1 <0>        -0.0078
     19 Cl1        -8.8271    7.0673    0.5632 Cl        1 <0>        -0.0668
     20 H1         -5.8472    3.3262    1.3289 H         1 <0>         0.1365
     21 H2         -7.9819    4.5318    1.5447 H         1 <0>         0.1395
     22 H3         -6.3949    7.7670   -0.7411 H         1 <0>         0.1387
     23 H4         -4.2538    6.5724   -0.9538 H         1 <0>         0.1488
     24 H5         -3.6878    3.2268   -0.0210 H         1 <0>         0.4110
     25 H6         -2.1583    2.2062    0.0066 H         1 <0>         0.1423
     26 H7          2.1050    2.2637   -0.0331 H         1 <0>         0.1476
     27 H8         -0.0630    6.6279   -0.8401 H         1 <0>         0.4055
@<TRIPOS>BOND
     1    1    6 ar
     2    1    2 ar
     3    1   20 1
     4    2    3 ar
     5    2   21 1
     6    3    4 ar
     7    3   19 1
     8    4    5 ar
     9    4   22 1
    10    5    6 ar
    11    5   23 1
    12    6    7 1
    13    7    8 am
    14    7   24 1
    15    8    9 2
    16    8   10 1
    17   10   15 ar
    18   10   11 ar
    19   11   12 ar
    20   11   25 1
    21   12   13 ar
    22   12   18 1
    23   13   14 ar
    24   13   26 1
    25   14   15 ar
    26   14   17 1
    27   15   16 1
    28   16   27 1
@<TRIPOS>MOLECULE
ZINC04014108
   30    31     0     0     0
SMALL
USER_CHARGES
2-hydroxy-3,5-diiodo-N-(p-tolyl)benzamide
@<TRIPOS>ATOM
      1 C1         -6.0575   -1.0132   -0.4051 C.3       1 <0>        -0.1151
      2 C2         -4.7645   -0.2475   -0.2924 C.ar      1 <0>        -0.0978
      3 C3         -4.7481    0.9927    0.3191 C.ar      1 <0>        -0.1006
      4 C4         -3.5649    1.6973    0.4236 C.ar      1 <0>        -0.1393
      5 C5         -2.3904    1.1587   -0.0859 C.ar      1 <0>         0.1381
      6 C6         -2.4111   -0.0850   -0.7037 C.ar      1 <0>        -0.1143
      7 C7         -3.5968   -0.7868   -0.8003 C.ar      1 <0>        -0.1005
      8 N1         -1.1906    1.8697    0.0179 N.am      1 <0>        -0.6694
      9 C8         -0.0268    1.2085    0.1752 C.2       1 <0>         0.5624
     10 O1         -0.0286    0.0015    0.3234 O.2       1 <0>        -0.4902
     11 C9          1.2494    1.9481    0.1616 C.ar      1 <0>        -0.1595
     12 C10         1.2559    3.3350   -0.0083 C.ar      1 <0>        -0.0197
     13 C11         2.4517    4.0204   -0.0201 C.ar      1 <0>        -0.1229
     14 C12         3.6490    3.3401    0.1363 C.ar      1 <0>        -0.0072
     15 C13         3.6566    1.9694    0.3052 C.ar      1 <0>        -0.1448
     16 C14         2.4616    1.2645    0.3249 C.ar      1 <0>         0.2257
     17 O2          2.4672   -0.0813    0.4966 O.3       1 <0>        -0.4609
     18 I1          5.4741    0.9545    0.5412 I         1 <0>         0.0038
     19 I2          2.4594    6.0998   -0.2751 I         1 <0>        -0.0088
     20 H1         -6.5562   -0.7490   -1.3376 H         1 <0>         0.0709
     21 H2         -5.8483   -2.0829   -0.3953 H         1 <0>         0.0669
     22 H3         -6.7033   -0.7616    0.4362 H         1 <0>         0.0666
     23 H4         -5.6618    1.4110    0.7151 H         1 <0>         0.1274
     24 H5         -3.5528    2.6658    0.9013 H         1 <0>         0.1261
     25 H6         -1.5004   -0.5046   -1.1048 H         1 <0>         0.1336
     26 H7         -3.6127   -1.7559   -1.2766 H         1 <0>         0.1266
     27 H8         -1.1961    2.8388   -0.0234 H         1 <0>         0.4084
     28 H9          0.3252    3.8692   -0.1299 H         1 <0>         0.1422
     29 H10         4.5814    3.8850    0.1266 H         1 <0>         0.1473
     30 H11         2.5238   -0.5829   -0.3282 H         1 <0>         0.4051
@<TRIPOS>BOND
     1    1    2 1
     2    1   20 1
     3    1   21 1
     4    1   22 1
     5    2    7 ar
     6    2    3 ar
     7    3    4 ar
     8    3   23 1
     9    4    5 ar
    10    4   24 1
    11    5    6 ar
    12    5    8 1
    13    6    7 ar
    14    6   25 1
    15    7   26 1
    16    8    9 am
    17    8   27 1
    18    9   10 2
    19    9   11 1
    20   11   16 ar
    21   11   12 ar
    22   12   13 ar
    23   12   28 1
    24   13   14 ar
    25   13   19 1
    26   14   15 ar
    27   14   29 1
    28   15   16 ar
    29   15   18 1
    30   16   17 1
    31   17   30 1
@<TRIPOS>MOLECULE
ZINC04014016
   31    32     0     0     0
SMALL
USER_CHARGES
2-hydroxy-3,5-diiodo-N-(4-methoxyphenyl)-benzamide
@<TRIPOS>ATOM
      1 C1         -6.9975   -0.3172   -1.1142 C.3       1 <0>         0.0261
      2 O1         -5.9340   -0.9411   -0.3920 O.3       1 <0>        -0.3165
      3 C2         -4.7675   -0.2498   -0.2911 C.ar      1 <0>         0.1179
      4 C3         -3.6943   -0.7974    0.3965 C.ar      1 <0>        -0.1329
      5 C4         -2.5094   -0.0959    0.4994 C.ar      1 <0>        -0.0768
      6 C5         -2.3921    1.1578   -0.0860 C.ar      1 <0>         0.1029
      7 C6         -3.4685    1.7075   -0.7697 C.ar      1 <0>        -0.1006
      8 C7         -4.6511    1.0026   -0.8762 C.ar      1 <0>        -0.1903
      9 N1         -1.1906    1.8698    0.0179 N.am      1 <0>        -0.6666
     10 C8         -0.0143    1.2120    0.0067 C.2       1 <0>         0.5626
     11 O2          0.0023   -0.0038   -0.0085 O.2       1 <0>        -0.4929
     12 C9          1.2529    1.9670    0.0068 C.ar      1 <0>        -0.1587
     13 C10         1.2384    3.3641    0.0243 C.ar      1 <0>        -0.0200
     14 C11         2.4259    4.0639    0.0248 C.ar      1 <0>        -0.1229
     15 C12         3.6357    3.3879    0.0085 C.ar      1 <0>        -0.0075
     16 C13         3.6641    2.0073   -0.0084 C.ar      1 <0>        -0.1447
     17 C14         2.4781    1.2871   -0.0047 C.ar      1 <0>         0.2258
     18 O3          2.5046   -0.0693   -0.0160 O.3       1 <0>        -0.4611
     19 I1          5.5004    0.9989   -0.0315 I         1 <0>         0.0034
     20 I2          2.4020    6.1586    0.0510 I         1 <0>        -0.0095
     21 H1         -7.2571    0.6269   -0.6353 H         1 <0>         0.0560
     22 H2         -6.6790   -0.1290   -2.1395 H         1 <0>         0.0559
     23 H3         -7.8677   -0.9736   -1.1188 H         1 <0>         0.1013
     24 H4         -3.7857   -1.7725    0.8518 H         1 <0>         0.1362
     25 H5         -1.6740   -0.5224    1.0348 H         1 <0>         0.1476
     26 H6         -3.3794    2.6845   -1.2214 H         1 <0>         0.1292
     27 H7         -5.4869    1.4281   -1.4117 H         1 <0>         0.1334
     28 H8         -1.2051    2.8364    0.0978 H         1 <0>         0.4080
     29 H9          0.2979    3.8950    0.0377 H         1 <0>         0.1421
     30 H10         4.5615    3.9440    0.0094 H         1 <0>         0.1470
     31 H11         2.5080   -0.4553   -0.9026 H         1 <0>         0.4056
@<TRIPOS>BOND
     1    1    2 1
     2    1   21 1
     3    1   22 1
     4    1   23 1
     5    2    3 1
     6    3    8 ar
     7    3    4 ar
     8    4    5 ar
     9    4   24 1
    10    5    6 ar
    11    5   25 1
    12    6    7 ar
    13    6    9 1
    14    7    8 ar
    15    7   26 1
    16    8   27 1
    17    9   10 am
    18    9   28 1
    19   10   11 2
    20   10   12 1
    21   12   17 ar
    22   12   13 ar
    23   13   14 ar
    24   13   29 1
    25   14   15 ar
    26   14   20 1
    27   15   16 ar
    28   15   30 1
    29   16   17 ar
    30   16   19 1
    31   17   18 1
    32   18   31 1
