@<TRIPOS>MOLECULE
ZINC00384856
   26    27     0     0     0
SMALL
USER_CHARGES
6-acetyl-7-methoxy-chromen-2-one
@<TRIPOS>ATOM
      1 C1          6.2551   -1.8519    0.0447 C.3       1 <0>        -0.1913
      2 C2          6.1451   -0.3525   -0.0594 C.2       1 <0>         0.3931
      3 O1          7.1474    0.3238   -0.1578 O.2       1 <0>        -0.4360
      4 C3          4.8260    0.2892   -0.0418 C.ar      1 <0>        -0.2252
      5 C4          3.6695   -0.4905   -0.0425 C.ar      1 <0>         0.0327
      6 C5          2.4218    0.1303   -0.0257 C.ar      1 <0>        -0.2114
      7 C6          1.1887   -0.6627   -0.0260 C.2       1 <0>         0.0126
      8 C7          0.0020   -0.0035   -0.0096 C.2       1 <0>        -0.2546
      9 C8         -0.0170    1.4069    0.0071 C.2       1 <0>         0.5095
     10 O2         -1.0885    1.9852    0.0166 O.2       1 <0>        -0.4554
     11 O3          1.1149    2.1284    0.0074 O.3       1 <0>        -0.2716
     12 C9          2.3287    1.5378   -0.0084 C.ar      1 <0>         0.2195
     13 C10         3.4841    2.3056   -0.0082 C.ar      1 <0>        -0.2484
     14 C11         4.7246    1.6953   -0.0245 C.ar      1 <0>         0.2381
     15 O4          5.8485    2.4523   -0.0242 O.3       1 <0>        -0.2731
     16 C12         5.6753    3.8707   -0.0066 C.3       1 <0>         0.0137
     17 H1          5.3399   -2.2547    0.0356 H         1 <0>         0.0725
     18 H2          6.8286   -2.2337   -0.8000 H         1 <0>         0.0958
     19 H3          6.7589   -2.1155    0.9747 H         1 <0>         0.0977
     20 H4          3.7404   -1.5681   -0.0554 H         1 <0>         0.1598
     21 H5          1.2234   -1.7421   -0.0394 H         1 <0>         0.1580
     22 H6         -0.9251   -0.5575   -0.0098 H         1 <0>         0.1673
     23 H7          3.4144    3.3833    0.0050 H         1 <0>         0.1562
     24 H8          6.6513    4.3559   -0.0084 H         1 <0>         0.1114
     25 H9          5.1146    4.1792   -0.8890 H         1 <0>         0.0646
     26 H10         5.1279    4.1588    0.8908 H         1 <0>         0.0644
@<TRIPOS>BOND
     1    1    2 1
     2    1   17 1
     3    1   18 1
     4    1   19 1
     5    2    3 2
     6    2    4 1
     7    4   14 ar
     8    4    5 ar
     9    5    6 ar
    10    5   20 1
    11    6   12 ar
    12    6    7 1
    13    7    8 2
    14    7   21 1
    15    8    9 1
    16    8   22 1
    17    9   10 2
    18    9   11 1
    19   11   12 1
    20   12   13 ar
    21   13   14 ar
    22   13   23 1
    23   14   15 1
    24   15   16 1
    25   16   24 1
    26   16   25 1
    27   16   26 1
@<TRIPOS>MOLECULE
ZINC02562448
   26    27     0     0     0
SMALL
USER_CHARGES
8-acetyl-7-methoxy-chromen-2-one
@<TRIPOS>ATOM
      1 C1         -3.1931    0.2006    1.3324 C.3       1 <0>        -0.1848
      2 C2         -2.4870   -0.0478    0.0245 C.2       1 <0>         0.4200
      3 O1         -2.9881    0.3249   -1.0158 O.2       1 <0>        -0.4355
      4 C3         -1.1960   -0.7389    0.0090 C.ar      1 <0>        -0.2129
      5 C4         -1.1419   -2.1386   -0.1030 C.ar      1 <0>         0.2178
      6 C5          0.0847   -2.7938   -0.1181 C.ar      1 <0>        -0.2277
      7 C6          1.2511   -2.0905   -0.0242 C.ar      1 <0>         0.0045
      8 C7          1.2266   -0.6940    0.0881 C.ar      1 <0>        -0.1990
      9 C8          0.0009   -0.0087    0.1056 C.ar      1 <0>         0.2163
     10 O2         -0.0184    1.3338    0.2137 O.3       1 <0>        -0.2700
     11 C9          1.1156    2.0464    0.3064 C.2       1 <0>         0.5101
     12 O3          1.0491    3.2588    0.4021 O.2       1 <0>        -0.4540
     13 C10         2.3815    1.4259    0.2962 C.2       1 <0>        -0.2532
     14 C11         2.4696    0.0745    0.1891 C.2       1 <0>         0.0118
     15 O4         -2.2891   -2.8525   -0.1963 O.3       1 <0>        -0.3023
     16 C12        -2.1628   -4.2716   -0.3077 C.3       1 <0>         0.0221
     17 H1         -2.6086   -0.0947    2.0881 H         1 <0>         0.0723
     18 H2         -3.4075    1.2645    1.4333 H         1 <0>         0.0980
     19 H3         -4.1266   -0.3618    1.3539 H         1 <0>         0.1002
     20 H4          0.1148   -3.8699   -0.2046 H         1 <0>         0.1490
     21 H5          2.1965   -2.6126   -0.0368 H         1 <0>         0.1493
     22 H6          3.2783    2.0229    0.3723 H         1 <0>         0.1679
     23 H7          3.4298   -0.4198    0.1785 H         1 <0>         0.1579
     24 H8         -3.1539   -4.7204   -0.3746 H         1 <0>         0.1108
     25 H9         -1.5919   -4.5164   -1.2034 H         1 <0>         0.0652
     26 H10        -1.6464   -4.6604    0.5699 H         1 <0>         0.0659
@<TRIPOS>BOND
     1    1    2 1
     2    1   17 1
     3    1   18 1
     4    1   19 1
     5    2    3 2
     6    2    4 1
     7    4    9 ar
     8    4    5 ar
     9    5    6 ar
    10    5   15 1
    11    6    7 ar
    12    6   20 1
    13    7    8 ar
    14    7   21 1
    15    8   14 1
    16    8    9 ar
    17    9   10 1
    18   10   11 1
    19   11   12 2
    20   11   13 1
    21   13   14 2
    22   13   22 1
    23   14   23 1
    24   15   16 1
    25   16   24 1
    26   16   25 1
    27   16   26 1
@<TRIPOS>MOLECULE
ZINC00366861
   23    24     0     0     0
SMALL
USER_CHARGES
8-acetyl-7-hydroxy-chromen-2-one
@<TRIPOS>ATOM
      1 C1         -3.7672   -0.8428    0.0319 C.3       1 <0>        -0.1762
      2 C2         -2.4870   -0.0478    0.0245 C.2       1 <0>         0.3877
      3 O1         -2.5260    1.1650    0.0313 O.2       1 <0>        -0.4315
      4 C3         -1.1960   -0.7388    0.0090 C.ar      1 <0>        -0.2202
      5 C4         -1.1430   -2.1430    0.0006 C.ar      1 <0>         0.2168
      6 C5          0.0836   -2.7982   -0.0146 C.ar      1 <0>        -0.1802
      7 C6          1.2512   -2.0904   -0.0210 C.ar      1 <0>        -0.0052
      8 C7          1.2278   -0.6894   -0.0133 C.ar      1 <0>        -0.1843
      9 C8          0.0021   -0.0041    0.0020 C.ar      1 <0>         0.2132
     10 O2         -0.0162    1.3427    0.0094 O.3       1 <0>        -0.2466
     11 C9          1.1188    2.0597    0.0024 C.2       1 <0>         0.5023
     12 O3          1.0532    3.2759    0.0092 O.2       1 <0>        -0.4502
     13 C10         2.3848    1.4395   -0.0121 C.2       1 <0>        -0.2428
     14 C11         2.4719    0.0838   -0.0206 C.2       1 <0>         0.0006
     15 O4         -2.2912   -2.8613    0.0076 O.3       1 <0>        -0.4825
     16 H1         -3.7943   -1.4235    0.8456 H         1 <0>         0.0922
     17 H2         -4.6180   -0.1615    0.0433 H         1 <0>         0.0818
     18 H3         -3.8129   -1.4663   -0.8611 H         1 <0>         0.0890
     19 H4          0.1130   -3.8778   -0.0210 H         1 <0>         0.1504
     20 H5          2.1966   -2.6125   -0.0324 H         1 <0>         0.1510
     21 H6          3.2824    2.0401   -0.0174 H         1 <0>         0.1685
     22 H7          3.4321   -0.4104   -0.0328 H         1 <0>         0.1593
     23 H8         -2.6332   -3.0649   -0.8736 H         1 <0>         0.4067
@<TRIPOS>BOND
     1    1    2 1
     2    1   16 1
     3    1   17 1
     4    1   18 1
     5    2    3 2
     6    2    4 1
     7    4    9 ar
     8    4    5 ar
     9    5    6 ar
    10    5   15 1
    11    6    7 ar
    12    6   19 1
    13    7    8 ar
    14    7   20 1
    15    8   14 1
    16    8    9 ar
    17    9   10 1
    18   10   11 1
    19   11   12 2
    20   11   13 1
    21   13   14 2
    22   13   21 1
    23   14   22 1
    24   15   23 1
@<TRIPOS>MOLECULE
ZINC00058111
   18    19     0     0     0
SMALL
USER_CHARGES

@<TRIPOS>ATOM
      1 C1         -0.0169    1.3951    0.0097 C.ar      1 <0>        -0.0354
      2 C2          1.1583    2.0894    0.0022 C.ar      1 <0>        -0.1668
      3 C3          2.3769    1.4140   -0.0130 C.ar      1 <0>         0.1683
      4 C4          2.4142    0.0290   -0.0208 C.ar      1 <0>        -0.1665
      5 C5          1.2301   -0.6919   -0.0134 C.ar      1 <0>         0.1647
      6 C6          0.0021   -0.0041    0.0020 C.ar      1 <0>        -0.1724
      7 C7         -1.2428   -0.7752    0.0092 C.2       1 <0>         0.0031
      8 C8         -1.1580   -2.1310    0.0007 C.2       1 <0>        -0.2471
      9 C9          0.1066   -2.7546   -0.0147 C.2       1 <0>         0.5075
     10 O1          0.1683   -3.9709   -0.0222 O.2       1 <0>        -0.4594
     11 O2          1.2441   -2.0421   -0.0211 O.3       1 <0>        -0.2706
     12 O3          3.5371    2.1188   -0.0208 O.3       1 <0>        -0.4909
     13 H1         -0.9584    1.9240    0.0260 H         1 <0>         0.1460
     14 H2          1.1435    3.1692    0.0078 H         1 <0>         0.1432
     15 H3          3.3627   -0.4873   -0.0330 H         1 <0>         0.1512
     16 H4         -2.2023   -0.2796    0.0214 H         1 <0>         0.1563
     17 H5         -2.0568   -2.7297    0.0060 H         1 <0>         0.1663
     18 H6          3.8818    2.3186    0.8603 H         1 <0>         0.4024
@<TRIPOS>BOND
     1    1    6 ar
     2    1    2 ar
     3    1   13 1
     4    2    3 ar
     5    2   14 1
     6    3    4 ar
     7    3   12 1
     8    4    5 ar
     9    4   15 1
    10    5   11 1
    11    5    6 ar
    12    6    7 1
    13    7    8 2
    14    7   16 1
    15    8    9 1
    16    8   17 1
    17    9   10 2
    18    9   11 1
    19   12   18 1
