@<TRIPOS>MOLECULE
ZINC34016620
   69    69     0     0     0
SMALL
USER_CHARGES

@<TRIPOS>ATOM
      1 C1          0.7698    0.2642   -0.5103 C.3       1 <0>        -0.1738
      2 C2         -0.2700    0.4153    0.6018 C.3       1 <0>        -0.1091
      3 C3         -0.7259    1.8737    0.6790 C.3       1 <0>        -0.1527
      4 C4         -1.4734   -0.4800    0.2999 C.3       1 <0>         0.0325
      5 H1         -2.2168   -0.3678    1.0891 H         1 <0>         0.1498
      6 C5         -2.0879   -0.0734   -1.0410 C.3       1 <0>         0.0278
      7 N1         -3.1673   -1.0073   -1.3883 N.3       1 <0>        -0.6639
      8 C6         -3.8768   -0.5660   -2.5965 C.3       1 <0>         0.0876
      9 H2         -3.5978    0.4623   -2.8265 H         1 <0>         0.0997
     10 C7         -3.4979   -1.4718   -3.7699 C.3       1 <0>        -0.1092
     11 C8         -2.0277   -1.3228   -4.0653 C.ar      1 <0>        -0.0795
     12 C9         -1.5843   -0.2816   -4.8592 C.ar      1 <0>        -0.1128
     13 C10        -0.2357   -0.1449   -5.1301 C.ar      1 <0>        -0.1086
     14 C11         0.6696   -1.0490   -4.6068 C.ar      1 <0>        -0.1224
     15 C12         0.2263   -2.0897   -3.8121 C.ar      1 <0>        -0.1173
     16 C13        -1.1219   -2.2239   -3.5377 C.ar      1 <0>        -0.1383
     17 C14        -5.3635   -0.6427   -2.3623 C.2       1 <0>         0.5105
     18 O1         -5.7900   -1.0272   -1.2940 O.2       1 <0>        -0.5216
     19 N2         -6.2191   -0.2841   -3.3399 N.am      1 <0>        -0.6936
     20 C15        -7.6644   -0.3588   -3.1122 C.3       1 <0>         0.0848
     21 H3         -7.8822   -0.1064   -2.0744 H         1 <0>         0.0846
     22 C16        -8.3782    0.6286   -4.0378 C.3       1 <0>        -0.0962
     23 C17        -7.9824    2.0578   -3.6615 C.3       1 <0>        -0.0743
     24 S1         -8.8286    3.2284   -4.7588 S.3       1 <0>        -0.2686
     25 C18        -8.2601    4.8539   -4.1887 C.3       1 <0>        -0.1213
     26 C19        -8.1469   -1.7569   -3.4011 C.2       1 <0>         0.4930
     27 O2         -9.1092   -2.2057   -2.8019 O.co2     1 <0>        -0.6866
     28 O3         -7.5750   -2.4392   -4.2341 O.co2     1 <0>        -0.6884
     29 N3         -1.0371   -1.8811    0.2338 N.4       1 <0>        -0.5023
     30 C20        -0.5620   -2.3090    1.5564 C.3       1 <0>        -0.0016
     31 C21        -0.1036   -3.7670    1.4865 C.3       1 <0>         0.0806
     32 H4         -0.9584   -4.4065    1.2664 H         1 <0>         0.1221
     33 C22         0.5061   -4.1748    2.8292 C.3       1 <0>        -0.1162
     34 S2          1.0496   -5.9035    2.7464 S.3       1 <0>        -0.2256
     35 N4          0.9033   -3.9135    0.4269 N.3       1 <0>        -0.8518
     36 H5          1.6272    0.9020   -0.2952 H         1 <0>         0.0824
     37 H6          1.0947   -0.7749   -0.5653 H         1 <0>         0.0538
     38 H7          0.3285    0.5578   -1.4627 H         1 <0>         0.0772
     39 H8          0.1714    0.1217    1.5543 H         1 <0>         0.0938
     40 H9         -1.0714    2.1988   -0.3023 H         1 <0>         0.0693
     41 H10        -1.5399    1.9623    1.3986 H         1 <0>         0.0698
     42 H11         0.1088    2.4990    0.9959 H         1 <0>         0.0750
     43 H12        -2.4915    0.9362   -0.9644 H         1 <0>         0.1197
     44 H13        -1.3210   -0.1003   -1.8151 H         1 <0>         0.0673
     45 H14        -2.8122   -1.9451   -1.4997 H         1 <0>         0.3324
     46 H15        -3.7135   -2.5089   -3.5127 H         1 <0>         0.0919
     47 H16        -4.0758   -1.1879   -4.6494 H         1 <0>         0.1006
     48 H17        -2.2916    0.4248   -5.2680 H         1 <0>         0.1263
     49 H18         0.1106    0.6681   -5.7509 H         1 <0>         0.1247
     50 H19         1.7232   -0.9426   -4.8190 H         1 <0>         0.1225
     51 H20         0.9335   -2.7963   -3.4035 H         1 <0>         0.1243
     52 H21        -1.4679   -3.0348   -2.9138 H         1 <0>         0.1172
     53 H22        -5.8780    0.0233   -4.1943 H         1 <0>         0.3905
     54 H23        -8.0901    0.4317   -5.0704 H         1 <0>         0.0763
     55 H24        -9.4566    0.5106   -3.9326 H         1 <0>         0.0888
     56 H25        -8.2704    2.2546   -2.6288 H         1 <0>         0.0788
     57 H26        -6.9039    2.1758   -3.7667 H         1 <0>         0.0746
     58 H27        -8.7206    5.6333   -4.7957 H         1 <0>         0.0998
     59 H28        -8.5423    4.9919   -3.1449 H         1 <0>         0.0738
     60 H29        -7.1758    4.9131   -4.2828 H         1 <0>         0.0716
     61 H30        -1.8122   -2.4618   -0.0492 H         1 <0>         0.4301
     62 H31         0.2734   -1.6797    1.8634 H         1 <0>         0.1318
     63 H32        -1.3716   -2.2170    2.2805 H         1 <0>         0.1423
     64 H33         1.3609   -3.5353    3.0494 H         1 <0>         0.0928
     65 H34        -0.2410   -4.0662    3.6154 H         1 <0>         0.1012
     66 H35         1.5604   -6.1428    3.9674 H         1 <0>         0.1060
     67 H36         1.7064   -3.3301    0.6081 H         1 <0>         0.3500
     68 H37         1.1750   -4.8790    0.3173 H         1 <0>         0.3774
     69 H38        -0.2885   -1.9690   -0.4371 H         1 <0>         0.4285
@<TRIPOS>BOND
     1    1    2 1
     2    1   36 1
     3    1   37 1
     4    1   38 1
     5    2    3 1
     6    2    4 1
     7    2   39 1
     8    3   40 1
     9    3   41 1
    10    3   42 1
    11    4    5 1
    12    4    6 1
    13    4   29 1
    14    6    7 1
    15    6   43 1
    16    6   44 1
    17    7    8 1
    18    7   45 1
    19    8    9 1
    20    8   10 1
    21    8   17 1
    22   10   11 1
    23   10   46 1
    24   10   47 1
    25   11   16 ar
    26   11   12 ar
    27   12   13 ar
    28   12   48 1
    29   13   14 ar
    30   13   49 1
    31   14   15 ar
    32   14   50 1
    33   15   16 ar
    34   15   51 1
    35   16   52 1
    36   17   18 2
    37   17   19 am
    38   19   20 1
    39   19   53 1
    40   20   21 1
    41   20   22 1
    42   20   26 1
    43   22   23 1
    44   22   54 1
    45   22   55 1
    46   23   24 1
    47   23   56 1
    48   23   57 1
    49   24   25 1
    50   25   58 1
    51   25   59 1
    52   25   60 1
    53   26   27 2
    54   26   28 1
    55   29   30 1
    56   29   61 1
    57   29   69 1
    58   30   31 1
    59   30   62 1
    60   30   63 1
    61   31   32 1
    62   31   33 1
    63   31   35 1
    64   33   34 1
    65   33   64 1
    66   33   65 1
    67   34   66 1
    68   35   67 1
    69   35   68 1
@<TRIPOS>MOLECULE
ZINC34016620
   70    70     0     0     0
SMALL
USER_CHARGES

@<TRIPOS>ATOM
      1 C1          0.5778    0.4603   -0.2664 C.3       1 <0>        -0.1746
      2 C2         -0.5487    0.4832    0.7686 C.3       1 <0>        -0.1113
      3 C3         -1.1258    1.8971    0.8631 C.3       1 <0>        -0.1575
      4 C4         -1.6505   -0.4901    0.3448 C.3       1 <0>         0.0336
      5 H1         -2.4586   -0.4649    1.0759 H         1 <0>         0.1664
      6 C5         -2.1912   -0.0823   -1.0272 C.3       1 <0>         0.0219
      7 N1         -3.1633   -1.0829   -1.4876 N.3       1 <0>        -0.6603
      8 C6         -3.8148   -0.6506   -2.7312 C.3       1 <0>         0.0866
      9 H2         -3.5868    0.3993   -2.9148 H         1 <0>         0.1029
     10 C7         -3.2992   -1.4960   -3.8975 C.3       1 <0>        -0.1117
     11 C8         -1.8216   -1.2592   -4.0750 C.ar      1 <0>        -0.0738
     12 C9         -1.3785   -0.1669   -4.7970 C.ar      1 <0>        -0.1052
     13 C10        -0.0230    0.0504   -4.9598 C.ar      1 <0>        -0.0999
     14 C11         0.8893   -0.8245   -4.4002 C.ar      1 <0>        -0.1182
     15 C12         0.4462   -1.9163   -3.6774 C.ar      1 <0>        -0.1338
     16 C13        -0.9092   -2.1312   -3.5110 C.ar      1 <0>        -0.1542
     17 C14        -5.3061   -0.8261   -2.6042 C.2       1 <0>         0.5089
     18 O1         -5.7796   -1.2678   -1.5787 O.2       1 <0>        -0.5240
     19 N2         -6.1137   -0.4923   -3.6303 N.am      1 <0>        -0.6887
     20 C15        -7.5635   -0.6629   -3.5069 C.3       1 <0>         0.0843
     21 H3         -7.8677   -0.4554   -2.4809 H         1 <0>         0.0859
     22 C16        -8.2735    0.3055   -4.4551 C.3       1 <0>        -0.0980
     23 C17        -7.9965    1.7446   -4.0157 C.3       1 <0>        -0.0757
     24 S1         -8.8383    2.8927   -5.1399 S.3       1 <0>        -0.2638
     25 C18        -8.4151    4.5326   -4.4902 C.3       1 <0>        -0.1218
     26 C19        -7.9349   -2.0789   -3.8644 C.2       1 <0>         0.4928
     27 O2         -8.9055   -2.6040   -3.3460 O.co2     1 <0>        -0.6822
     28 O3         -7.2648   -2.6995   -4.6721 O.co2     1 <0>        -0.6900
     29 N3         -1.1003   -1.8501    0.2698 N.4       1 <0>        -0.5272
     30 C20        -0.6894   -2.2867    1.6109 C.3       1 <0>        -0.0343
     31 C21        -0.2229   -3.7427    1.5526 C.3       1 <0>         0.0288
     32 H4         -1.0636   -4.3831    1.2858 H         1 <0>         0.1862
     33 C22         0.3213   -4.1590    2.9205 C.3       1 <0>        -0.1231
     34 S2          0.8744   -5.8853    2.8514 S.3       1 <0>        -0.2257
     35 N4          0.8354   -3.8777    0.5428 N.4       1 <0>        -0.6499
     36 H5          1.3628    1.1537    0.0355 H         1 <0>         0.0930
     37 H6          0.9889   -0.5469   -0.3338 H         1 <0>         0.0353
     38 H7          0.1843    0.7578   -1.2384 H         1 <0>         0.0853
     39 H8         -0.1552    0.1857    1.7406 H         1 <0>         0.0969
     40 H9         -1.4251    2.2344   -0.1292 H         1 <0>         0.0740
     41 H10        -1.9939    1.8919    1.5223 H         1 <0>         0.0758
     42 H11        -0.3695    2.5722    1.2636 H         1 <0>         0.0824
     43 H12        -2.6786    0.8897   -0.9514 H         1 <0>         0.1315
     44 H13        -1.3678   -0.0214   -1.7388 H         1 <0>         0.0706
     45 H14        -2.7264   -1.9851   -1.6029 H         1 <0>         0.3234
     46 H15        -3.4755   -2.5510   -3.6874 H         1 <0>         0.0936
     47 H16        -3.8245   -1.2147   -4.8103 H         1 <0>         0.1065
     48 H17        -2.0912    0.5166   -5.2343 H         1 <0>         0.1323
     49 H18         0.3231    0.9034   -5.5245 H         1 <0>         0.1310
     50 H19         1.9482   -0.6552   -4.5280 H         1 <0>         0.1264
     51 H20         1.1589   -2.6000   -3.2404 H         1 <0>         0.1160
     52 H21        -1.2554   -2.9822   -2.9432 H         1 <0>         0.1117
     53 H22        -5.7350   -0.1390   -4.4505 H         1 <0>         0.3914
     54 H23        -7.9033    0.1576   -5.4696 H         1 <0>         0.0772
     55 H24        -9.3470    0.1179   -4.4291 H         1 <0>         0.0913
     56 H25        -8.3667    1.8925   -3.0012 H         1 <0>         0.0786
     57 H26        -6.9231    1.9322   -4.0417 H         1 <0>         0.0722
     58 H27        -8.7765    4.6219   -3.4657 H         1 <0>         0.0743
     59 H28        -7.3329    4.6616   -4.5062 H         1 <0>         0.0710
     60 H29        -8.8816    5.2998   -5.1082 H         1 <0>         0.1017
     61 H30        -1.8042   -2.4785   -0.0875 H         1 <0>         0.4405
     62 H31         0.1276   -1.6572    1.9635 H         1 <0>         0.1652
     63 H32        -1.5339   -2.2029    2.2949 H         1 <0>         0.1907
     64 H33         1.1620   -3.5185    3.1874 H         1 <0>         0.1237
     65 H34        -0.4639   -4.0588    3.6698 H         1 <0>         0.1488
     66 H35         1.3253   -6.1325    4.0942 H         1 <0>         0.1522
     67 H36         0.4764   -3.6032   -0.3594 H         1 <0>         0.4268
     68 H37         1.6136   -3.2849    0.7897 H         1 <0>         0.4442
     69 H38        -0.3006   -1.8559   -0.3455 H         1 <0>         0.4079
     70 H39         1.1430   -4.8379    0.5043 H         1 <0>         0.4632
@<TRIPOS>BOND
     1    1    2 1
     2    1   36 1
     3    1   37 1
     4    1   38 1
     5    2    3 1
     6    2    4 1
     7    2   39 1
     8    3   40 1
     9    3   41 1
    10    3   42 1
    11    4    5 1
    12    4    6 1
    13    4   29 1
    14    6    7 1
    15    6   43 1
    16    6   44 1
    17    7    8 1
    18    7   45 1
    19    8    9 1
    20    8   10 1
    21    8   17 1
    22   10   11 1
    23   10   46 1
    24   10   47 1
    25   11   16 ar
    26   11   12 ar
    27   12   13 ar
    28   12   48 1
    29   13   14 ar
    30   13   49 1
    31   14   15 ar
    32   14   50 1
    33   15   16 ar
    34   15   51 1
    35   16   52 1
    36   17   18 2
    37   17   19 am
    38   19   20 1
    39   19   53 1
    40   20   21 1
    41   20   22 1
    42   20   26 1
    43   22   23 1
    44   22   54 1
    45   22   55 1
    46   23   24 1
    47   23   56 1
    48   23   57 1
    49   24   25 1
    50   25   58 1
    51   25   59 1
    52   25   60 1
    53   26   27 2
    54   26   28 1
    55   29   30 1
    56   29   61 1
    57   29   69 1
    58   30   31 1
    59   30   62 1
    60   30   63 1
    61   31   32 1
    62   31   33 1
    63   31   35 1
    64   33   34 1
    65   33   64 1
    66   33   65 1
    67   34   66 1
    68   35   67 1
    69   35   68 1
    70   35   70 1
