@<TRIPOS>MOLECULE
ZINC00002216
   24    25     0     0     0
SMALL
USER_CHARGES

@<TRIPOS>ATOM
      1 C1          0.6409    0.2697    1.1605 C.ar      1 <0>        -0.1053
      2 C2          1.8276    0.9794    1.1670 C.ar      1 <0>        -0.0911
      3 C3          2.3809    1.4153   -0.0261 C.ar      1 <0>         0.0524
      4 C4          1.7399    1.1371   -1.2302 C.ar      1 <0>         0.1181
      5 C5          0.5513    0.4257   -1.2306 C.ar      1 <0>        -0.1276
      6 C6          0.0037   -0.0069   -0.0356 C.ar      1 <0>        -0.0143
      7 Cl1        -1.4859   -0.8984   -0.0377 Cl        1 <0>        -0.0497
      8 O1          2.2792    1.5634   -2.4035 O.3       1 <0>        -0.4836
      9 O2          3.5477    2.1138   -0.0209 O.3       1 <0>        -0.2359
     10 C7          3.4812    3.4679   -0.1180 C.ar      1 <0>         0.1430
     11 C8          2.2494    4.1059   -0.1010 C.ar      1 <0>        -0.1652
     12 C9          2.1838    5.4822   -0.1993 C.ar      1 <0>        -0.0647
     13 C10         3.3456    6.2252   -0.3148 C.ar      1 <0>        -0.0565
     14 C11         4.5754    5.5917   -0.3326 C.ar      1 <0>        -0.0661
     15 C12         4.6461    4.2150   -0.2287 C.ar      1 <0>        -0.0524
     16 Cl2         6.1896    3.4206   -0.2439 Cl        1 <0>        -0.0396
     17 Cl3         3.2597    7.9547   -0.4382 Cl        1 <0>        -0.0530
     18 H1          0.2131   -0.0733    2.0909 H         1 <0>         0.1484
     19 H2          2.3230    1.1944    2.1023 H         1 <0>         0.1499
     20 H3          0.0519    0.2090   -2.1634 H         1 <0>         0.1503
     21 H4          2.8879    0.9310   -2.8093 H         1 <0>         0.4014
     22 H5          1.3422    3.5268   -0.0112 H         1 <0>         0.1432
     23 H6          1.2249    5.9789   -0.1864 H         1 <0>         0.1450
     24 H7          5.4809    6.1734   -0.4232 H         1 <0>         0.1534
@<TRIPOS>BOND
     1    1    6 ar
     2    1    2 ar
     3    1   18 1
     4    2    3 ar
     5    2   19 1
     6    3    4 ar
     7    3    9 1
     8    4    5 ar
     9    4    8 1
    10    5    6 ar
    11    5   20 1
    12    6    7 1
    13    8   21 1
    14    9   10 1
    15   10   15 ar
    16   10   11 ar
    17   11   12 ar
    18   11   22 1
    19   12   13 ar
    20   12   23 1
    21   13   14 ar
    22   13   17 1
    23   14   15 ar
    24   14   24 1
    25   15   16 1
@<TRIPOS>MOLECULE
ZINC00002216
   23    24     0     0     0
SMALL
USER_CHARGES

@<TRIPOS>ATOM
      1 C1          0.6410    0.2696    1.1605 C.ar      1 <0>        -0.2462
      2 C2          1.8276    0.9794    1.1670 C.ar      1 <0>        -0.0518
      3 C3          2.3809    1.4153   -0.0261 C.ar      1 <0>        -0.0995
      4 C4          1.7398    1.1372   -1.2302 C.ar      1 <0>         0.2785
      5 C5          0.5513    0.4258   -1.2306 C.ar      1 <0>        -0.2490
      6 C6          0.0037   -0.0069   -0.0356 C.ar      1 <0>         0.0341
      7 Cl1        -1.4859   -0.8984   -0.0377 Cl        1 <0>        -0.1116
      8 O1          2.2791    1.5635   -2.4035 O.3       1 <0>        -0.6900
      9 O2          3.5477    2.1138   -0.0209 O.3       1 <0>        -0.2158
     10 C7          3.4812    3.4679   -0.1180 C.ar      1 <0>         0.1718
     11 C8          2.2494    4.1059   -0.1010 C.ar      1 <0>        -0.1653
     12 C9          2.1838    5.4822   -0.1993 C.ar      1 <0>        -0.0671
     13 C10         3.3456    6.2252   -0.3148 C.ar      1 <0>        -0.0780
     14 C11         4.5754    5.5917   -0.3326 C.ar      1 <0>        -0.0689
     15 C12         4.6461    4.2150   -0.2287 C.ar      1 <0>        -0.0695
     16 Cl2         6.1896    3.4206   -0.2439 Cl        1 <0>        -0.0570
     17 Cl3         3.2597    7.9547   -0.4382 Cl        1 <0>        -0.0782
     18 H1          0.2132   -0.0734    2.0910 H         1 <0>         0.1135
     19 H2          2.3231    1.1943    2.1023 H         1 <0>         0.1130
     20 H3          0.0518    0.2091   -2.1633 H         1 <0>         0.1145
     21 H4          1.3422    3.5268   -0.0112 H         1 <0>         0.1450
     22 H5          1.2249    5.9789   -0.1864 H         1 <0>         0.1353
     23 H6          5.4809    6.1734   -0.4232 H         1 <0>         0.1422
@<TRIPOS>BOND
     1    1    6 ar
     2    1    2 ar
     3    1   18 1
     4    2    3 ar
     5    2   19 1
     6    3    4 ar
     7    3    9 1
     8    4    5 ar
     9    4    8 1
    10    5    6 ar
    11    5   20 1
    12    6    7 1
    13    9   10 1
    14   10   15 ar
    15   10   11 ar
    16   11   12 ar
    17   11   21 1
    18   12   13 ar
    19   12   22 1
    20   13   14 ar
    21   13   17 1
    22   14   15 ar
    23   14   23 1
    24   15   16 1
