@<TRIPOS>MOLECULE
ZINC17654900
   94    97     0     0     0
SMALL
USER_CHARGES
(3S,6S,9S,12R)-6-[(1-methoxyindol-3-yl)methyl]-9-(6-oxooctyl)-3-sec-butyl-1,4,7,10-tetrazabicyclo[10.4.0]hexadecane-2,5,8,11-tetrone
@<TRIPOS>ATOM
      1 C1          8.2186   -0.3631    2.3729 C.3       1 <0>        -0.1519
      2 C2          6.8466    0.2556    2.6482 C.3       1 <0>        -0.1113
      3 C3          6.0980    0.4446    1.3273 C.3       1 <0>        -0.0991
      4 H1          6.0473   -0.5074    0.7990 H         1 <0>         0.1052
      5 C4          6.8378    1.4683    0.4638 C.3       1 <0>        -0.1490
      6 C5          4.6849    0.9448    1.6108 C.3       1 <0>         0.1520
      7 H2          4.7449    1.9102    2.1298 H         1 <0>         0.0924
      8 C6          3.8976    1.1045    0.3382 C.2       1 <0>         0.5218
      9 O1          3.8394    0.1756   -0.4447 O.2       1 <0>        -0.5083
     10 N1          3.2674    2.2382    0.0046 N.am      1 <0>        -0.5936
     11 C7          3.6970    3.5435    0.5007 C.3       1 <0>         0.1093
     12 C8          4.1205    4.4091   -0.6907 C.3       1 <0>        -0.1355
     13 C9          3.6930    3.7399   -1.9970 C.3       1 <0>        -0.1068
     14 C10         2.2234    3.3140   -1.9135 C.3       1 <0>        -0.1232
     15 C11         2.1017    2.1645   -0.8968 C.3       1 <0>         0.1360
     16 H3          2.1356    1.2308   -1.4340 H         1 <0>         0.1126
     17 C12         0.8339    2.3308   -0.1197 C.2       1 <0>         0.5305
     18 O2          0.7119    3.3857    0.5143 O.2       1 <0>        -0.5285
     19 N2         -0.1909    1.4560   -0.0335 N.am      1 <0>        -0.7270
     20 C13         0.0021   -0.0041    0.0020 C.3       1 <0>         0.1279
     21 H4         -0.9584   -0.4688    0.2979 H         1 <0>         0.1120
     22 C14         1.0097   -0.3771    1.0507 C.2       1 <0>         0.5021
     23 O3          1.5548    0.4895    1.7051 O.2       1 <0>        -0.5054
     24 N3          1.2812   -1.6958    1.2826 N.am      1 <0>        -0.7107
     25 C15         2.3243   -1.9116    2.3308 C.3       1 <0>         0.1321
     26 H5          2.0011   -1.5060    3.2853 H         1 <0>         0.0903
     27 C16         3.5493   -1.1770    1.8469 C.2       1 <0>         0.5147
     28 O4          4.1907   -1.6725    0.9413 O.2       1 <0>        -0.4756
     29 N4          3.9213   -0.0150    2.4482 N.am      1 <0>        -0.7194
     30 C17         2.6307   -3.4038    2.4788 C.3       1 <0>        -0.0391
     31 C18         1.4086   -4.1189    2.9947 C.2       1 <0>        -0.1608
     32 C19         1.1361   -4.4113    4.2762 C.2       1 <0>         0.0410
     33 N5         -0.0633   -5.0644    4.3608 N.pl3     1 <0>        -0.3486
     34 C20        -0.6057   -5.2120    3.1039 C.ar      1 <0>         0.1243
     35 C21         0.2897   -4.6210    2.1935 C.ar      1 <0>        -0.0948
     36 C22        -0.0060   -4.6162    0.8293 C.ar      1 <0>        -0.0826
     37 C23        -1.1671   -5.1836    0.3848 C.ar      1 <0>        -0.1341
     38 C24        -2.0553   -5.7648    1.2791 C.ar      1 <0>        -0.0972
     39 C25        -1.7797   -5.7871    2.6290 C.ar      1 <0>        -0.1161
     40 O5         -0.6585   -5.5199    5.5622 O.3       1 <0>        -0.1437
     41 C26         0.1104   -5.2408    6.7340 C.3       1 <0>        -0.0037
     42 C27         0.3873   -0.5697   -1.3583 C.3       1 <0>        -0.1323
     43 C28        -0.7456   -0.3168   -2.3551 C.3       1 <0>        -0.1161
     44 C29        -0.3585   -0.8851   -3.7219 C.3       1 <0>        -0.1195
     45 C30        -1.4914   -0.6322   -4.7187 C.3       1 <0>        -0.1126
     46 C31        -1.1043   -1.2005   -6.0855 C.3       1 <0>        -0.1654
     47 C32        -2.2201   -0.9514   -7.0674 C.2       1 <0>         0.3499
     48 O6         -3.2215   -0.3784   -6.7107 O.2       1 <0>        -0.4501
     49 C33        -2.0862   -1.4173   -8.4943 C.3       1 <0>        -0.1692
     50 C34        -3.3482   -1.0421   -9.2738 C.3       1 <0>        -0.1477
     51 H6          8.7519   -0.4977    3.3139 H         1 <0>         0.0526
     52 H7          8.0901   -1.3301    1.8865 H         1 <0>         0.0548
     53 H8          8.7912    0.2977    1.7221 H         1 <0>         0.0560
     54 H9          6.9751    1.2226    3.1346 H         1 <0>         0.0583
     55 H10         6.2740   -0.4052    3.2990 H         1 <0>         0.0622
     56 H11         6.8885    2.4204    0.9922 H         1 <0>         0.0531
     57 H12         7.8474    1.1110    0.2614 H         1 <0>         0.0656
     58 H13         6.3045    1.6030   -0.4772 H         1 <0>         0.0535
     59 H14         2.8732    4.0259    1.0156 H         1 <0>         0.0841
     60 H15         4.5457    3.4316    1.1711 H         1 <0>         0.0790
     61 H16         3.6448    5.3853   -0.6184 H         1 <0>         0.0728
     62 H17         5.2016    4.5234   -0.6845 H         1 <0>         0.0680
     63 H18         3.8204    4.4388   -2.8250 H         1 <0>         0.0687
     64 H19         4.3128    2.8620   -2.1723 H         1 <0>         0.0654
     65 H20         1.6208    4.1576   -1.5730 H         1 <0>         0.0798
     66 H21         1.8767    2.9708   -2.8857 H         1 <0>         0.0778
     67 H22        -1.1211    1.8169    0.0123 H         1 <0>         0.4129
     68 H23         0.8477   -2.4320    0.8209 H         1 <0>         0.4145
     69 H24         3.6941    0.1788    3.3848 H         1 <0>         0.4134
     70 H25         2.9100   -3.8153    1.5088 H         1 <0>         0.0955
     71 H26         3.4536   -3.5379    3.1809 H         1 <0>         0.0915
     72 H27         1.7695   -4.1669    5.1161 H         1 <0>         0.1728
     73 H28         0.6805   -4.1661    0.1276 H         1 <0>         0.1229
     74 H29        -1.3956   -5.1793   -0.6707 H         1 <0>         0.1271
     75 H30        -2.9688   -6.2091    0.9126 H         1 <0>         0.1289
     76 H31        -2.4780   -6.2402    3.3171 H         1 <0>         0.1242
     77 H32        -0.4131   -5.6211    7.6112 H         1 <0>         0.1231
     78 H33         1.0838   -5.7248    6.6536 H         1 <0>         0.0654
     79 H34         0.2470   -4.1638    6.8310 H         1 <0>         0.0647
     80 H35         1.2965   -0.0822   -1.7102 H         1 <0>         0.0814
     81 H36         0.5608   -1.6421   -1.2699 H         1 <0>         0.0804
     82 H37        -1.6548   -0.8042   -2.0032 H         1 <0>         0.0676
     83 H38        -0.9191    0.7557   -2.4435 H         1 <0>         0.0672
     84 H39         0.5507   -0.3976   -4.0738 H         1 <0>         0.0640
     85 H40        -0.1850   -1.9575   -3.6336 H         1 <0>         0.0659
     86 H41        -2.4006   -1.1196   -4.3668 H         1 <0>         0.0687
     87 H42        -1.6649    0.4403   -4.8071 H         1 <0>         0.0674
     88 H43        -0.2702   -0.7533   -6.4083 H         1 <0>         0.0885
     89 H44        -0.9307   -2.2729   -5.9972 H         1 <0>         0.0985
     90 H45        -1.2919   -0.9789   -8.9149 H         1 <0>         0.0879
     91 H46        -1.9561   -2.4993   -8.5125 H         1 <0>         0.0977
     92 H47        -4.2139   -1.5200   -8.8153 H         1 <0>         0.0602
     93 H48        -3.4783    0.0399   -9.2556 H         1 <0>         0.0596
     94 H49        -3.2513   -1.3791  -10.3059 H         1 <0>         0.0615
@<TRIPOS>BOND
     1    1    2 1
     2    1   51 1
     3    1   52 1
     4    1   53 1
     5    2    3 1
     6    2   54 1
     7    2   55 1
     8    3    4 1
     9    3    5 1
    10    3    6 1
    11    5   56 1
    12    5   57 1
    13    5   58 1
    14    6    7 1
    15    6   29 1
    16    6    8 1
    17    8    9 2
    18    8   10 am
    19   10   15 1
    20   10   11 1
    21   11   12 1
    22   11   59 1
    23   11   60 1
    24   12   13 1
    25   12   61 1
    26   12   62 1
    27   13   14 1
    28   13   63 1
    29   13   64 1
    30   14   15 1
    31   14   65 1
    32   14   66 1
    33   15   16 1
    34   15   17 1
    35   17   18 2
    36   17   19 am
    37   19   20 1
    38   19   67 1
    39   20   21 1
    40   20   22 1
    41   20   42 1
    42   22   23 2
    43   22   24 am
    44   24   25 1
    45   24   68 1
    46   25   26 1
    47   25   27 1
    48   25   30 1
    49   27   28 2
    50   27   29 am
    51   29   69 1
    52   30   31 1
    53   30   70 1
    54   30   71 1
    55   31   35 1
    56   31   32 2
    57   32   33 1
    58   32   72 1
    59   33   34 1
    60   33   40 1
    61   34   39 ar
    62   34   35 ar
    63   35   36 ar
    64   36   37 ar
    65   36   73 1
    66   37   38 ar
    67   37   74 1
    68   38   39 ar
    69   38   75 1
    70   39   76 1
    71   40   41 1
    72   41   77 1
    73   41   78 1
    74   41   79 1
    75   42   43 1
    76   42   80 1
    77   42   81 1
    78   43   44 1
    79   43   82 1
    80   43   83 1
    81   44   45 1
    82   44   84 1
    83   44   85 1
    84   45   46 1
    85   45   86 1
    86   45   87 1
    87   46   47 1
    88   46   88 1
    89   46   89 1
    90   47   48 2
    91   47   49 1
    92   49   50 1
    93   49   90 1
    94   49   91 1
    95   50   92 1
    96   50   93 1
    97   50   94 1
