@<TRIPOS>MOLECULE
ZINC05543044
   44    45     0     0     0
SMALL
USER_CHARGES

@<TRIPOS>ATOM
      1 C1         -0.0173    1.4248    0.0099 C.3       1 <0>         0.0223
      2 O1          0.0021   -0.0041    0.0020 O.3       1 <0>        -0.3062
      3 C2          0.6062   -0.6075   -1.0564 C.ar      1 <0>         0.1006
      4 C3          1.1701    0.1578   -2.0573 C.ar      1 <0>        -0.1692
      5 C4          1.7915   -0.4674   -3.1460 C.ar      1 <0>        -0.0548
      6 C5          1.8369   -1.8658   -3.2124 C.ar      1 <0>        -0.1154
      7 C6          1.2717   -2.6208   -2.2092 C.ar      1 <0>        -0.1105
      8 C7          0.6608   -1.9995   -1.1274 C.ar      1 <0>         0.0921
      9 O2          0.1105   -2.7497   -0.1383 O.3       1 <0>        -0.4848
     10 C8          2.3926    0.3403   -4.2140 C.2       1 <0>        -0.0031
     11 C9          2.9934   -0.2670   -5.2666 C.2       1 <0>        -0.2427
     12 C10         3.5700    0.5078   -6.2910 C.2       1 <0>         0.3744
     13 C11         4.2379   -0.1673   -7.4611 C.3       1 <0>        -0.2162
     14 C12         4.7689    0.8780   -8.4080 C.2       1 <0>         0.3745
     15 O3          4.6195    2.0570   -8.1569 O.2       1 <0>        -0.4249
     16 C13         5.4382    0.4879   -9.5835 C.2       1 <0>        -0.2449
     17 C14         5.9159    1.4282  -10.4352 C.2       1 <0>        -0.0013
     18 C15         6.6137    1.0215  -11.6609 C.ar      1 <0>        -0.0778
     19 C16         6.7822   -0.3374  -11.9554 C.ar      1 <0>        -0.0875
     20 C17         7.4373   -0.7158  -13.1059 C.ar      1 <0>        -0.1335
     21 C18         7.9326    0.2469  -13.9763 C.ar      1 <0>         0.0976
     22 C19         7.7694    1.6023  -13.6901 C.ar      1 <0>         0.0783
     23 C20         7.1082    1.9913  -12.5425 C.ar      1 <0>        -0.1024
     24 O4          8.2569    2.5409  -14.5450 O.3       1 <0>        -0.4856
     25 O5          8.5781   -0.1327  -15.1090 O.3       1 <0>        -0.4864
     26 O6          3.5291    1.7203   -6.2316 O.2       1 <0>        -0.4250
     27 H1          1.0053    1.8021    0.0021 H         1 <0>         0.0580
     28 H2         -0.5445    1.7859   -0.8732 H         1 <0>         0.0575
     29 H3         -0.5275    1.7763    0.9067 H         1 <0>         0.1046
     30 H4          1.1319    1.2357   -2.0014 H         1 <0>         0.1391
     31 H5          2.3148   -2.3516   -4.0503 H         1 <0>         0.1370
     32 H6          1.3073   -3.6990   -2.2614 H         1 <0>         0.1423
     33 H7         -0.8182   -2.9751   -0.2859 H         1 <0>         0.3908
     34 H8          2.3563    1.4184   -4.1612 H         1 <0>         0.1368
     35 H9          3.0298   -1.3450   -5.3193 H         1 <0>         0.1355
     36 H10         5.0615   -0.7848   -7.1027 H         1 <0>         0.1286
     37 H11         5.5711   -0.5604   -9.8067 H         1 <0>         0.1346
     38 H12         5.7830    2.4765  -10.2120 H         1 <0>         0.1385
     39 H13         6.3989   -1.0882  -11.2802 H         1 <0>         0.1383
     40 H14         7.5667   -1.7639  -13.3320 H         1 <0>         0.1396
     41 H15         6.9767    3.0405  -12.3226 H         1 <0>         0.1408
     42 H16         7.6305    2.8124  -15.2298 H         1 <0>         0.3900
     43 H17         7.9975   -0.2431  -15.8744 H         1 <0>         0.3917
     44 H18         3.5134   -0.7940   -7.9810 H         1 <0>         0.1284
@<TRIPOS>BOND
     1    1    2 1
     2    1   27 1
     3    1   28 1
     4    1   29 1
     5    2    3 1
     6    3    8 ar
     7    3    4 ar
     8    4    5 ar
     9    4   30 1
    10    5    6 ar
    11    5   10 1
    12    6    7 ar
    13    6   31 1
    14    7    8 ar
    15    7   32 1
    16    8    9 1
    17    9   33 1
    18   10   11 2
    19   10   34 1
    20   11   12 1
    21   11   35 1
    22   12   13 1
    23   12   26 2
    24   13   14 1
    25   13   36 1
    26   13   44 1
    27   14   15 2
    28   14   16 1
    29   16   17 2
    30   16   37 1
    31   17   18 1
    32   17   38 1
    33   18   23 ar
    34   18   19 ar
    35   19   20 ar
    36   19   39 1
    37   20   21 ar
    38   20   40 1
    39   21   22 ar
    40   21   25 1
    41   22   23 ar
    42   22   24 1
    43   23   41 1
    44   24   42 1
    45   25   43 1
@<TRIPOS>MOLECULE
ZINC13780823
   41    43     0     0     0
SMALL
USER_CHARGES
(4Z)-2-(2-hydroxybenzoyl)-4-[(4-methoxyphenyl)methylene]-5-methyl-pyrazol-3-one
@<TRIPOS>ATOM
      1 C1         -0.2307   -3.1746    0.3641 C.3       1 <0>        -0.0895
      2 C2         -1.3409   -2.1568    0.3116 C.2       1 <0>         0.1697
      3 N1         -2.6125   -2.4060    0.3723 N.2       1 <0>        -0.2549
      4 N2         -3.3658   -1.2349    0.2961 N.am      1 <0>        -0.4353
      5 C3         -2.5514   -0.1658    0.1856 C.2       1 <0>         0.5280
      6 O1         -2.8831    1.0031    0.1025 O.2       1 <0>        -0.4426
      7 C4         -1.1791   -0.7004    0.1828 C.2       1 <0>        -0.2701
      8 C5          0.0033    0.0117    0.0862 C.2       1 <0>         0.1204
      9 C6         -0.0272    1.4421   -0.2163 C.ar      1 <0>        -0.1668
     10 C7         -0.9292    1.9420   -1.1684 C.ar      1 <0>         0.0036
     11 C8         -0.9567    3.2796   -1.4421 C.ar      1 <0>        -0.2173
     12 C9         -0.0846    4.1448   -0.7883 C.ar      1 <0>         0.1643
     13 C10         0.8157    3.6548    0.1528 C.ar      1 <0>        -0.1664
     14 C11         0.8493    2.3201    0.4399 C.ar      1 <0>        -0.0340
     15 O2         -0.1126    5.4715   -1.0692 O.3       1 <0>        -0.3113
     16 C12        -1.0608    5.9082   -2.0451 C.3       1 <0>         0.0232
     17 C13        -4.7119   -1.1793    0.3332 C.2       1 <0>         0.5913
     18 O3         -5.2810   -0.1180    0.1684 O.2       1 <0>        -0.4561
     19 C14        -5.4938   -2.4053    0.5736 C.ar      1 <0>        -0.1809
     20 C15        -4.8547   -3.6472    0.6292 C.ar      1 <0>        -0.0638
     21 C16        -5.5910   -4.7888    0.8586 C.ar      1 <0>        -0.1483
     22 C17        -6.9646   -4.7133    1.0247 C.ar      1 <0>        -0.0670
     23 C18        -7.6094   -3.4939    0.9675 C.ar      1 <0>        -0.1651
     24 C19        -6.8839   -2.3335    0.7422 C.ar      1 <0>         0.1734
     25 O4         -7.5162   -1.1348    0.6849 O.3       1 <0>        -0.4823
     26 H1          0.0683   -3.3329    1.4003 H         1 <0>         0.0986
     27 H2         -0.5800   -4.1155   -0.0611 H         1 <0>         0.0926
     28 H3          0.6225   -2.8115   -0.2089 H         1 <0>         0.0914
     29 H4          0.9487   -0.4889    0.2343 H         1 <0>         0.1571
     30 H5         -1.6032    1.2709   -1.6800 H         1 <0>         0.1242
     31 H6         -1.6531    3.6661   -2.1715 H         1 <0>         0.1334
     32 H7          1.4897    4.3315    0.6571 H         1 <0>         0.1383
     33 H8          1.5485    1.9411    1.1705 H         1 <0>         0.1385
     34 H9         -0.8597    5.4119   -2.9946 H         1 <0>         0.0593
     35 H10        -2.0677    5.6583   -1.7107 H         1 <0>         0.0604
     36 H11        -0.9783    6.9873   -2.1746 H         1 <0>         0.1047
     37 H12        -3.7848   -3.7113    0.4962 H         1 <0>         0.1780
     38 H13        -5.0958   -5.7474    0.9054 H         1 <0>         0.1330
     39 H14        -7.5343   -5.6140    1.1996 H         1 <0>         0.1326
     40 H15        -8.6803   -3.4436    1.0979 H         1 <0>         0.1372
     41 H16        -7.8103   -0.8873   -0.2024 H         1 <0>         0.3980
@<TRIPOS>BOND
     1    1    2 1
     2    1   26 1
     3    1   27 1
     4    1   28 1
     5    2    7 1
     6    2    3 2
     7    3    4 1
     8    4    5 am
     9    4   17 am
    10    5    6 2
    11    5    7 1
    12    7    8 2
    13    8    9 1
    14    8   29 1
    15    9   14 ar
    16    9   10 ar
    17   10   11 ar
    18   10   30 1
    19   11   12 ar
    20   11   31 1
    21   12   13 ar
    22   12   15 1
    23   13   14 ar
    24   13   32 1
    25   14   33 1
    26   15   16 1
    27   16   34 1
    28   16   35 1
    29   16   36 1
    30   17   18 2
    31   17   19 1
    32   19   24 ar
    33   19   20 ar
    34   20   21 ar
    35   20   37 1
    36   21   22 ar
    37   21   38 1
    38   22   23 ar
    39   22   39 1
    40   23   24 ar
    41   23   40 1
    42   24   25 1
    43   25   41 1
@<TRIPOS>MOLECULE
ZINC13475024
   31    32     0     0     0
SMALL
USER_CHARGES

@<TRIPOS>ATOM
      1 C1          0.0188    1.5269    0.0302 C.3       1 <0>        -0.1491
      2 C2          0.0289   -0.0030    0.0161 C.3       1 <0>         0.0513
      3 O1          0.6954   -0.4641   -1.1608 O.3       1 <0>        -0.3413
      4 C3          0.7910   -1.7965   -1.3265 C.2       1 <0>         0.4307
      5 O2          0.3221   -2.5463   -0.4959 O.2       1 <0>        -0.5136
      6 C4          1.4722   -2.3500   -2.5292 C.2       1 <0>         0.3775
      7 C5          1.5713   -3.7313   -2.7010 C.2       1 <0>        -0.4920
      8 C6          2.2061   -4.2471   -3.8217 C.2       1 <0>         0.3742
      9 O3          2.6294   -3.4174   -4.8000 O.3       1 <0>        -0.6104
     10 C7          2.4170   -5.6899   -3.9439 C.2       1 <0>        -0.1592
     11 C8          1.9598   -6.6686   -3.0866 C.2       1 <0>         0.0779
     12 N1          2.3570   -7.8826   -3.5335 N.pl3     1 <0>        -0.5844
     13 H1          2.1557   -8.7249   -3.0966 H         1 <0>         0.4140
     14 C9          3.0887   -7.7557   -4.6977 C.ar      1 <0>         0.0824
     15 C10         3.1561   -6.3893   -5.0125 C.ar      1 <0>        -0.0643
     16 C11         3.8356   -5.9670   -6.1516 C.ar      1 <0>        -0.0379
     17 C12         4.4391   -6.8980   -6.9712 C.ar      1 <0>        -0.0687
     18 C13         4.3699   -8.2495   -6.6635 C.ar      1 <0>        -0.0986
     19 C14         3.7082   -8.6791   -5.5333 C.ar      1 <0>        -0.1235
     20 Cl1         5.2879   -6.3773   -8.3932 Cl        1 <0>        -0.0838
     21 O4          1.9433   -1.5966   -3.3637 O.2       1 <0>        -0.4826
     22 H2          1.0440    1.8971    0.0246 H         1 <0>         0.0649
     23 H3         -0.5052    1.8949   -0.8519 H         1 <0>         0.0649
     24 H4         -0.4896    1.8787    0.9279 H         1 <0>         0.0715
     25 H5          0.5529   -0.3710    0.8982 H         1 <0>         0.0601
     26 H6         -0.9963   -0.3732    0.0218 H         1 <0>         0.0601
     27 H7          1.1540   -4.3987   -1.9616 H         1 <0>         0.0956
     28 H8          1.3751   -6.4932   -2.1957 H         1 <0>         0.1820
     29 H9          3.8897   -4.9156   -6.3926 H         1 <0>         0.1479
     30 H10         4.8453   -8.9707   -7.3117 H         1 <0>         0.1302
     31 H11         3.6590   -9.7334   -5.3041 H         1 <0>         0.1241
@<TRIPOS>BOND
     1    1    2 1
     2    1   22 1
     3    1   23 1
     4    1   24 1
     5    2    3 1
     6    2   25 1
     7    2   26 1
     8    3    4 1
     9    4    5 2
    10    4    6 1
    11    6    7 1
    12    6   21 2
    13    7    8 2
    14    7   27 1
    15    8    9 1
    16    8   10 1
    17   10   15 1
    18   10   11 2
    19   11   12 1
    20   11   28 1
    21   12   13 1
    22   12   14 1
    23   14   19 ar
    24   14   15 ar
    25   15   16 ar
    26   16   17 ar
    27   16   29 1
    28   17   18 ar
    29   17   20 1
    30   18   19 ar
    31   18   30 1
    32   19   31 1
@<TRIPOS>MOLECULE
ZINC13475024
   32    33     0     0     0
SMALL
USER_CHARGES
ethyl (Z)-4-(5-chloro-1H-indol-3-yl)-2-hydroxy-4-oxo-but-2-enoate
@<TRIPOS>ATOM
      1 C1         -6.0726    1.7446    0.0403 C.3       1 <0>        -0.1557
      2 C2         -4.8467    0.8291    0.0295 C.3       1 <0>         0.0575
      3 O1         -3.6398    1.6364    0.0282 O.3       1 <0>        -0.3277
      4 C3         -2.4640    0.9787    0.0191 C.2       1 <0>         0.4651
      5 O2         -2.4476   -0.2354    0.0124 O.2       1 <0>        -0.4750
      6 C4         -1.1927    1.7359    0.0171 C.2       1 <0>         0.3427
      7 C5         -0.0126    1.0758    0.0080 C.3       1 <0>        -0.2458
      8 C6          1.2487    1.8271   -0.0001 C.2       1 <0>         0.4414
      9 O3          1.2322    3.0449    0.0066 O.2       1 <0>        -0.4222
     10 C7          2.5306    1.1101   -0.0161 C.2       1 <0>        -0.2588
     11 C8          2.7104   -0.2446   -0.0191 C.2       1 <0>         0.1309
     12 N1          4.0336   -0.5303   -0.0385 N.pl3     1 <0>        -0.5693
     13 H1          4.4061   -1.4258   -0.0465 H         1 <0>         0.4263
     14 C9          4.7781    0.6324   -0.0397 C.ar      1 <0>         0.0849
     15 C10         3.8776    1.7097   -0.0258 C.ar      1 <0>        -0.0532
     16 C11         4.3535    3.0181   -0.0233 C.ar      1 <0>        -0.0590
     17 C12         5.7131    3.2499   -0.0345 C.ar      1 <0>        -0.0482
     18 C13         6.6040    2.1858   -0.0477 C.ar      1 <0>        -0.0897
     19 C14         6.1453    0.8861   -0.0503 C.ar      1 <0>        -0.1074
     20 Cl1         6.3124    4.8792   -0.0314 Cl        1 <0>        -0.0627
     21 O4         -1.2111    3.0897    0.0246 O.2       1 <0>        -0.4022
     22 H2         -6.0520    2.3688    0.9336 H         1 <0>         0.0698
     23 H3         -6.0605    2.3785   -0.8463 H         1 <0>         0.0705
     24 H4         -6.9786    1.1385    0.0413 H         1 <0>         0.0848
     25 H5         -4.8672    0.2049   -0.8638 H         1 <0>         0.0778
     26 H6         -4.8588    0.1952    0.9162 H         1 <0>         0.0766
     27 H7          0.0021   -0.0041    0.0020 H         1 <0>         0.1805
     28 H8          1.9166   -0.9768   -0.0102 H         1 <0>         0.1886
     29 H9          3.6616    3.8473   -0.0123 H         1 <0>         0.1453
     30 H10         7.6668    2.3780   -0.0564 H         1 <0>         0.1413
     31 H11         6.8471    0.0653   -0.0610 H         1 <0>         0.1352
     32 H12         0.2838    0.9100    0.9486 H         1 <0>         0.1574
@<TRIPOS>BOND
     1    1    2 1
     2    1   22 1
     3    1   23 1
     4    1   24 1
     5    2    3 1
     6    2   25 1
     7    2   26 1
     8    3    4 1
     9    4    5 2
    10    4    6 1
    11    6    7 1
    12    6   21 2
    13    7   32 1
    14    7   27 1
    15    7    8 1
    16    8   10 1
    17    8    9 2
    18   10   15 1
    19   10   11 2
    20   11   12 1
    21   11   28 1
    22   12   13 1
    23   12   14 1
    24   14   19 ar
    25   14   15 ar
    26   15   16 ar
    27   16   17 ar
    28   16   29 1
    29   17   18 ar
    30   17   20 1
    31   18   19 ar
    32   18   30 1
    33   19   31 1
@<TRIPOS>MOLECULE
ZINC13475020
   32    33     0     0     0
SMALL
USER_CHARGES

@<TRIPOS>ATOM
      1 C1          3.9170    1.3883   -3.6184 C.ar      1 <0>        -0.1546
      2 C2          3.7772    0.0127   -3.6123 C.ar      1 <0>        -0.0809
      3 C3          3.6660   -0.6661   -2.4144 C.ar      1 <0>        -0.1931
      4 C4          3.6952    0.0337   -1.2165 C.ar      1 <0>         0.1236
      5 C5          3.8361    1.4141   -1.2255 C.ar      1 <0>        -0.1475
      6 C6          3.9464    2.0881   -2.4262 C.ar      1 <0>        -0.0844
      7 O1          3.5855   -0.6316   -0.0368 O.3       1 <0>        -0.2604
      8 C7          3.4589   -1.9816   -0.0764 C.ar      1 <0>         0.1025
      9 C8          2.1944   -2.5575   -0.1441 C.ar      1 <0>        -0.1376
     10 C9          2.0611   -3.9215   -0.1843 C.ar      1 <0>        -0.0522
     11 C10         3.2006   -4.7351   -0.1576 C.ar      1 <0>        -0.1535
     12 C11         4.4713   -4.1503   -0.0898 C.ar      1 <0>        -0.0595
     13 C12         4.5941   -2.7852   -0.0549 C.ar      1 <0>        -0.1361
     14 C13         3.0635   -6.1966   -0.1999 C.2       1 <0>         0.3825
     15 C14         4.2914   -7.0698   -0.1710 C.3       1 <0>        -0.2126
     16 C15         3.8791   -8.5183   -0.2244 C.2       1 <0>         0.2904
     17 O2          2.7088   -8.8114   -0.2803 O.2       1 <0>        -0.4219
     18 C16         4.9178   -9.5914   -0.2083 C.2       1 <0>         0.4696
     19 O3          4.5839  -10.7645   -0.2516 O.co2     1 <0>        -0.6514
     20 O4          6.1004   -9.2953   -0.1519 O.co2     1 <0>        -0.6685
     21 O5          1.9619   -6.7010   -0.2582 O.2       1 <0>        -0.4134
     22 H1          4.0080    1.9167   -4.5559 H         1 <0>         0.1243
     23 H2          3.7545   -0.5314   -4.5449 H         1 <0>         0.1266
     24 H3          3.5560   -1.7405   -2.4102 H         1 <0>         0.1298
     25 H4          3.8587    1.9611   -0.2945 H         1 <0>         0.1318
     26 H5          4.0557    3.1625   -2.4337 H         1 <0>         0.1300
     27 H6          1.3163   -1.9291   -0.1647 H         1 <0>         0.1353
     28 H7          1.0789   -4.3676   -0.2362 H         1 <0>         0.1419
     29 H8          5.3531   -4.7735   -0.0685 H         1 <0>         0.1474
     30 H9          5.5737   -2.3331   -0.0064 H         1 <0>         0.1377
     31 H10         4.9214   -6.8394   -1.0301 H         1 <0>         0.1269
     32 H11         4.8478   -6.8840    0.7477 H         1 <0>         0.1271
@<TRIPOS>BOND
     1    1    6 ar
     2    1    2 ar
     3    1   22 1
     4    2    3 ar
     5    2   23 1
     6    3    4 ar
     7    3   24 1
     8    4    5 ar
     9    4    7 1
    10    5    6 ar
    11    5   25 1
    12    6   26 1
    13    7    8 1
    14    8   13 ar
    15    8    9 ar
    16    9   10 ar
    17    9   27 1
    18   10   11 ar
    19   10   28 1
    20   11   12 ar
    21   11   14 1
    22   12   13 ar
    23   12   29 1
    24   13   30 1
    25   14   15 1
    26   14   21 2
    27   15   16 1
    28   15   31 1
    29   15   32 1
    30   16   17 2
    31   16   18 1
    32   18   19 2
    33   18   20 1
@<TRIPOS>MOLECULE
ZINC04824606
   56    59     0     0     0
SMALL
USER_CHARGES

@<TRIPOS>ATOM
      1 C1          3.2862   -4.2316   -6.2423 C.ar      1 <0>        -0.0973
      2 C2          4.4614   -3.5021   -6.2617 C.ar      1 <0>        -0.0969
      3 C3          5.0350   -3.0663   -5.0811 C.ar      1 <0>        -0.0685
      4 C4          4.4275   -3.3627   -3.8638 C.ar      1 <0>        -0.1207
      5 C5          3.2330   -4.1042   -3.8439 C.ar      1 <0>        -0.1206
      6 C6          2.6693   -4.5349   -5.0419 C.ar      1 <0>        -0.0676
      7 C7          2.5818   -4.4236   -2.5563 C.2       1 <0>         0.4299
      8 O1          1.5489   -5.0651   -2.5389 O.2       1 <0>        -0.4082
      9 C8          3.1853   -3.9648   -1.2955 C.ar      1 <0>        -0.1059
     10 C9          2.5764   -4.2629   -0.0712 C.ar      1 <0>         0.1774
     11 C10         3.1589   -3.8223    1.1200 C.ar      1 <0>        -0.0814
     12 C11         4.3268   -3.0967    1.0984 C.ar      1 <0>        -0.1173
     13 C12         4.9482   -2.7899   -0.1123 C.ar      1 <0>         0.1698
     14 C13         4.3834   -3.2209   -1.3146 C.ar      1 <0>        -0.1449
     15 C14         5.0332   -2.9018   -2.5971 C.2       1 <0>         0.4328
     16 O2          6.0662   -2.2608   -2.6137 O.2       1 <0>        -0.4114
     17 O3          6.0994   -2.0734   -0.1217 O.3       1 <0>        -0.4739
     18 N1          1.3979   -4.9933   -0.0403 N.pl3     1 <0>        -0.6839
     19 C15         1.4356   -6.3849   -0.1548 C.ar      1 <0>         0.2827
     20 C16         2.6555   -7.0499   -0.1663 C.ar      1 <0>        -0.2111
     21 C17         2.6889   -8.4257   -0.2797 C.ar      1 <0>         0.0238
     22 C18         1.5101   -9.1416   -0.3822 C.ar      1 <0>        -0.7253
     23 C19         0.2942   -8.4829   -0.3715 C.ar      1 <0>         0.0265
     24 C20         0.2530   -7.1078   -0.2518 C.ar      1 <0>        -0.1948
     25 S1          1.5576  -10.8970   -0.5272 S.o2      1 <0>         2.6884
     26 O4          0.3443  -11.2854   -1.1567 O.2       1 <0>        -0.9595
     27 O5          2.8325  -11.2260   -1.0617 O.2       1 <0>        -0.9611
     28 N2          1.5138  -11.5165    1.0079 N.pl3     1 <0>        -0.9824
     29 C21         0.2270  -11.8208    1.6385 C.3       1 <0>         0.1269
     30 C22        -0.1087  -13.2982    1.4253 C.3       1 <0>         0.0548
     31 O6          0.8489  -14.1080    2.1103 O.3       1 <0>        -0.5683
     32 C23         2.7619  -11.7602    1.7353 C.3       1 <0>         0.1151
     33 C24         3.0784  -10.5551    2.6232 C.3       1 <0>         0.0533
     34 O7          2.0725  -10.4282    3.6302 O.3       1 <0>        -0.5635
     35 H1          2.8450   -4.5628   -7.1707 H         1 <0>         0.1396
     36 H2          4.9342   -3.2716   -7.2050 H         1 <0>         0.1399
     37 H3          5.9528   -2.4974   -5.1033 H         1 <0>         0.1446
     38 H4          1.7518   -5.1045   -5.0341 H         1 <0>         0.1435
     39 H5          2.6883   -4.0529    2.0643 H         1 <0>         0.1474
     40 H6          4.7663   -2.7615    2.0262 H         1 <0>         0.1510
     41 H7          6.8996   -2.6142   -0.0749 H         1 <0>         0.4025
     42 H8          0.5475   -4.5378    0.0608 H         1 <0>         0.4173
     43 H9          3.5764   -6.4914   -0.0870 H         1 <0>         0.1238
     44 H10         3.6368   -8.9433   -0.2886 H         1 <0>         0.1359
     45 H11        -0.6245   -9.0451   -0.4521 H         1 <0>         0.1387
     46 H12        -0.6971   -6.5944   -0.2387 H         1 <0>         0.1322
     47 H13         0.2876  -11.6125    2.7067 H         1 <0>         0.1030
     48 H14        -0.5518  -11.2030    1.1915 H         1 <0>         0.0903
     49 H15        -1.1050  -13.5045    1.8163 H         1 <0>         0.0571
     50 H16        -0.0820  -13.5268    0.3598 H         1 <0>         0.0516
     51 H17         0.6976  -15.0587    2.0185 H         1 <0>         0.3780
     52 H18         2.6531  -12.6499    2.3556 H         1 <0>         0.1074
     53 H19         3.5738  -11.9105    1.0237 H         1 <0>         0.1030
     54 H20         4.0501  -10.6975    3.0962 H         1 <0>         0.0565
     55 H21         3.0995   -9.6510    2.0147 H         1 <0>         0.0442
     56 H22         2.2093   -9.6829    4.2311 H         1 <0>         0.3755
@<TRIPOS>BOND
     1    1    6 ar
     2    1    2 ar
     3    1   35 1
     4    2    3 ar
     5    2   36 1
     6    3    4 ar
     7    3   37 1
     8    4   15 1
     9    4    5 ar
    10    5    6 ar
    11    5    7 1
    12    6   38 1
    13    7    8 2
    14    7    9 1
    15    9   14 ar
    16    9   10 ar
    17   10   11 ar
    18   10   18 1
    19   11   12 ar
    20   11   39 1
    21   12   13 ar
    22   12   40 1
    23   13   14 ar
    24   13   17 1
    25   14   15 1
    26   15   16 2
    27   17   41 1
    28   18   19 1
    29   18   42 1
    30   19   24 ar
    31   19   20 ar
    32   20   21 ar
    33   20   43 1
    34   21   22 ar
    35   21   44 1
    36   22   23 ar
    37   22   25 1
    38   23   24 ar
    39   23   45 1
    40   24   46 1
    41   25   26 2
    42   25   27 2
    43   25   28 1
    44   28   29 1
    45   28   32 1
    46   29   30 1
    47   29   47 1
    48   29   48 1
    49   30   31 1
    50   30   49 1
    51   30   50 1
    52   31   51 1
    53   32   33 1
    54   32   52 1
    55   32   53 1
    56   33   34 1
    57   33   54 1
    58   33   55 1
    59   34   56 1
@<TRIPOS>MOLECULE
ZINC00394133
   25    25     0     0     0
SMALL
USER_CHARGES

@<TRIPOS>ATOM
      1 C1         -0.0167    1.3831    0.0096 C.ar      1 <0>        -0.1808
      2 C2          1.1708    2.0889    0.0021 C.ar      1 <0>         0.0159
      3 C3          2.3774    1.4139   -0.0130 C.ar      1 <0>        -0.7413
      4 C4          2.3988    0.0314   -0.0207 C.ar      1 <0>         0.0231
      5 C5          1.2141   -0.6789   -0.0132 C.ar      1 <0>        -0.2382
      6 C6          0.0021   -0.0041    0.0020 C.ar      1 <0>         0.1991
      7 O1         -1.1648   -0.7007    0.0099 O.3       1 <0>        -0.2707
      8 C7         -1.0693   -2.1264    0.0013 C.3       1 <0>        -0.0138
      9 C8         -2.4533   -2.7227    0.0118 C.2       1 <0>         0.5017
     10 O2         -3.4308   -1.9942    0.0254 O.co2     1 <0>        -0.6691
     11 O3         -2.5954   -3.9336    0.0067 O.co2     1 <0>        -0.6825
     12 S1          3.8903    2.3171   -0.0232 S.o2      1 <0>         2.7169
     13 O4          4.8719    1.4587   -0.5880 O.2       1 <0>        -0.9448
     14 O5          3.5954    3.5973   -0.5648 O.2       1 <0>        -0.9600
     15 N1          4.3261    2.5601    1.5558 N.pl3     1 <0>        -0.9721
     16 N2          4.5475    1.4901    2.3757 N.3       1 <0>        -0.5859
     17 H1         -0.9589    1.9107    0.0260 H         1 <0>         0.1410
     18 H2          1.1567    3.1688    0.0077 H         1 <0>         0.1414
     19 H3          3.3426   -0.4935   -0.0329 H         1 <0>         0.1427
     20 H4          1.2313   -1.7588   -0.0195 H         1 <0>         0.1401
     21 H5         -0.5412   -2.4498   -0.8957 H         1 <0>         0.0662
     22 H6         -0.5235   -2.4593    0.8841 H         1 <0>         0.0658
     23 H7          4.4242    3.4622    1.8985 H         1 <0>         0.4092
     24 H8          4.8042    1.7925    3.3034 H         1 <0>         0.3596
     25 H9          3.7421    0.8829    2.4032 H         1 <0>         0.3365
@<TRIPOS>BOND
     1    1    6 ar
     2    1    2 ar
     3    1   17 1
     4    2    3 ar
     5    2   18 1
     6    3    4 ar
     7    3   12 1
     8    4    5 ar
     9    4   19 1
    10    5    6 ar
    11    5   20 1
    12    6    7 1
    13    7    8 1
    14    8    9 1
    15    8   21 1
    16    8   22 1
    17    9   10 2
    18    9   11 1
    19   12   13 2
    20   12   14 2
    21   12   15 1
    22   15   16 1
    23   15   23 1
    24   16   24 1
    25   16   25 1
@<TRIPOS>MOLECULE
ZINC03921793
   30    31     0     0     0
SMALL
USER_CHARGES
3-(3,4-dihydroxyphenyl)-1-phenyl-prop-2-en-1-one
@<TRIPOS>ATOM
      1 C1          9.7514    0.1209   -0.0894 C.ar      1 <0>        -0.0898
      2 C2          9.7422    1.5047   -0.0823 C.ar      1 <0>        -0.1315
      3 C3          8.5449    2.1895   -0.0672 C.ar      1 <0>        -0.0634
      4 C4          7.3406    1.4834   -0.0595 C.ar      1 <0>        -0.1626
      5 C5          7.3570    0.0875   -0.0614 C.ar      1 <0>        -0.0758
      6 C6          8.5613   -0.5850   -0.0818 C.ar      1 <0>        -0.1327
      7 C7          6.0529    2.2112   -0.0433 C.2       1 <0>         0.4247
      8 O1          6.0417    3.4287   -0.0366 O.2       1 <0>        -0.4610
      9 C8          4.8319    1.4912   -0.0355 C.2       1 <0>        -0.2412
     10 C9          3.6543    2.1567   -0.0207 C.2       1 <0>         0.0016
     11 C10         2.3892    1.4107   -0.0127 C.ar      1 <0>        -0.0784
     12 C11         2.3996    0.0104   -0.0203 C.ar      1 <0>        -0.0874
     13 C12         1.2118   -0.6864   -0.0132 C.ar      1 <0>        -0.1338
     14 C13         0.0021   -0.0041    0.0020 C.ar      1 <0>         0.0992
     15 C14        -0.0168    1.3905    0.0097 C.ar      1 <0>         0.0791
     16 C15         1.1689    2.0976    0.0022 C.ar      1 <0>        -0.1020
     17 O2         -1.2038    2.0542    0.0189 O.3       1 <0>        -0.4905
     18 O3         -1.1659   -0.6970    0.0090 O.3       1 <0>        -0.4914
     19 H1         10.6916   -0.4104   -0.1005 H         1 <0>         0.1279
     20 H2         10.6746    2.0497   -0.0882 H         1 <0>         0.1297
     21 H3          8.5391    3.2694   -0.0609 H         1 <0>         0.1338
     22 H4          6.4289   -0.4647   -0.0509 H         1 <0>         0.1306
     23 H5          8.5753   -1.6649   -0.0871 H         1 <0>         0.1296
     24 H6          4.8418    0.4113   -0.0414 H         1 <0>         0.1352
     25 H7          3.6444    3.2367   -0.0148 H         1 <0>         0.1395
     26 H8          3.3387   -0.5228   -0.0321 H         1 <0>         0.1369
     27 H9          1.2209   -1.7663   -0.0191 H         1 <0>         0.1397
     28 H10         1.1554    3.1775    0.0077 H         1 <0>         0.1411
     29 H11        -1.5430    2.2413    0.9049 H         1 <0>         0.3956
     30 H12        -1.5122   -0.8929   -0.8724 H         1 <0>         0.3973
@<TRIPOS>BOND
     1    1    6 ar
     2    1    2 ar
     3    1   19 1
     4    2    3 ar
     5    2   20 1
     6    3    4 ar
     7    3   21 1
     8    4    5 ar
     9    4    7 1
    10    5    6 ar
    11    5   22 1
    12    6   23 1
    13    7    8 2
    14    7    9 1
    15    9   10 2
    16    9   24 1
    17   10   11 1
    18   10   25 1
    19   11   16 ar
    20   11   12 ar
    21   12   13 ar
    22   12   26 1
    23   13   14 ar
    24   13   27 1
    25   14   15 ar
    26   14   18 1
    27   15   16 ar
    28   15   17 1
    29   16   28 1
    30   17   29 1
    31   18   30 1
@<TRIPOS>MOLECULE
ZINC01651128
   41    42     0     0     0
SMALL
USER_CHARGES

@<TRIPOS>ATOM
      1 C1         -0.0166    1.3729    0.0096 C.ar      1 <0>        -0.0874
      2 C2          1.1870    2.0889    0.0019 C.ar      1 <0>        -0.0779
      3 C3          2.4068    1.3999   -0.0134 C.ar      1 <0>        -0.1022
      4 C4          2.4154    0.0198   -0.0209 C.ar      1 <0>         0.0782
      5 C5          1.2120   -0.6859   -0.0132 C.ar      1 <0>         0.0976
      6 C6          0.0021   -0.0041    0.0020 C.ar      1 <0>        -0.1336
      7 O1          1.2236   -2.0437   -0.0211 O.3       1 <0>        -0.4864
      8 O2          3.5975   -0.6525   -0.0362 O.3       1 <0>        -0.4857
      9 C7          1.1706    3.5566    0.0095 C.2       1 <0>        -0.0012
     10 C8         -0.0109    4.2212    0.0239 C.2       1 <0>        -0.2451
     11 C9         -0.0266    5.6289    0.0311 C.2       1 <0>         0.3744
     12 O3          1.0184    6.2480    0.0245 O.2       1 <0>        -0.4245
     13 C10        -1.3400    6.3676    0.0471 C.3       1 <0>        -0.2162
     14 C11        -1.0813    7.8523    0.0522 C.2       1 <0>         0.3744
     15 O4          0.0593    8.2700    0.0437 O.2       1 <0>        -0.4246
     16 C12        -2.1615    8.7550    0.0669 C.2       1 <0>        -0.2450
     17 C13        -1.9287   10.0905    0.0714 C.2       1 <0>        -0.0012
     18 C14        -3.0549   11.0317    0.0867 C.ar      1 <0>        -0.0779
     19 C15        -2.8169   12.4123    0.0856 C.ar      1 <0>        -0.1022
     20 C16        -3.8803   13.2920    0.1001 C.ar      1 <0>         0.0782
     21 C17        -5.1880   12.8064    0.1157 C.ar      1 <0>         0.0976
     22 C18        -5.4253   11.4379    0.1172 C.ar      1 <0>        -0.1335
     23 C19        -4.3709   10.5524    0.0966 C.ar      1 <0>        -0.0875
     24 O5         -6.2322   13.6744    0.1299 O.3       1 <0>        -0.4865
     25 O6         -3.6531   14.6329    0.0996 O.3       1 <0>        -0.4857
     26 H1         -0.9589    1.9003    0.0259 H         1 <0>         0.1382
     27 H2          3.3378    1.9473   -0.0197 H         1 <0>         0.1408
     28 H3         -0.9267   -0.5553    0.0083 H         1 <0>         0.1396
     29 H4          1.2356   -2.4421    0.8600 H         1 <0>         0.3917
     30 H5          3.9481   -0.8516    0.8427 H         1 <0>         0.3902
     31 H6          2.0998    4.1071    0.0036 H         1 <0>         0.1386
     32 H7         -0.9400    3.6707    0.0298 H         1 <0>         0.1345
     33 H8         -1.9169    6.1024   -0.8388 H         1 <0>         0.1283
     34 H9         -1.9003    6.0934    0.9410 H         1 <0>         0.1283
     35 H10        -3.1756    8.3836    0.0745 H         1 <0>         0.1345
     36 H11        -0.9146   10.4619    0.0638 H         1 <0>         0.1386
     37 H12        -1.8041   12.7872    0.0739 H         1 <0>         0.1409
     38 H13        -6.4396   11.0673    0.1297 H         1 <0>         0.1396
     39 H14        -4.5585    9.4888    0.0926 H         1 <0>         0.1383
     40 H15        -6.5456   13.9270   -0.7493 H         1 <0>         0.3918
     41 H16        -3.5982   15.0222   -0.7839 H         1 <0>         0.3901
@<TRIPOS>BOND
     1    1    6 ar
     2    1    2 ar
     3    1   26 1
     4    2    3 ar
     5    2    9 1
     6    3    4 ar
     7    3   27 1
     8    4    5 ar
     9    4    8 1
    10    5    6 ar
    11    5    7 1
    12    6   28 1
    13    7   29 1
    14    8   30 1
    15    9   10 2
    16    9   31 1
    17   10   11 1
    18   10   32 1
    19   11   12 2
    20   11   13 1
    21   13   14 1
    22   13   33 1
    23   13   34 1
    24   14   15 2
    25   14   16 1
    26   16   17 2
    27   16   35 1
    28   17   18 1
    29   17   36 1
    30   18   23 ar
    31   18   19 ar
    32   19   20 ar
    33   19   37 1
    34   20   21 ar
    35   20   25 1
    36   21   22 ar
    37   21   24 1
    38   22   23 ar
    39   22   38 1
    40   23   39 1
    41   24   40 1
    42   25   41 1
@<TRIPOS>MOLECULE
ZINC01642250
   34    35     0     0     0
SMALL
USER_CHARGES
benzyl 3-(3,4-dihydroxyphenyl)prop-2-enoate
@<TRIPOS>ATOM
      1 C1         -6.3072    7.2083    0.0711 C.ar      1 <0>        -0.1086
      2 C2         -5.6593    6.9464    1.2638 C.ar      1 <0>        -0.1225
      3 C3         -4.3750    6.4351    1.2550 C.ar      1 <0>        -0.0953
      4 C4         -3.7385    6.1861    0.0534 C.ar      1 <0>        -0.0997
      5 C5         -4.3843    6.4534   -1.1393 C.ar      1 <0>        -0.0955
      6 C6         -5.6707    6.9594   -1.1304 C.ar      1 <0>        -0.1226
      7 C7         -2.3383    5.6291    0.0437 C.3       1 <0>         0.1092
      8 O1         -2.3937    4.2012    0.0362 O.3       1 <0>        -0.3441
      9 C8         -1.2161    3.5425    0.0271 C.2       1 <0>         0.5017
     10 O2         -0.1710    4.1650    0.0255 O.2       1 <0>        -0.5129
     11 C9         -1.1969    2.1249    0.0193 C.2       1 <0>        -0.2064
     12 C10        -0.0179    1.4654    0.0101 C.2       1 <0>         0.0122
     13 C11         0.0021   -0.0041    0.0020 C.ar      1 <0>        -0.0799
     14 C12        -1.1993   -0.7224    0.0096 C.ar      1 <0>        -0.0850
     15 C13        -1.1777   -2.0996    0.0021 C.ar      1 <0>        -0.1333
     16 C14         0.0336   -2.7786   -0.0136 C.ar      1 <0>         0.1008
     17 C15         1.2347   -2.0702   -0.0217 C.ar      1 <0>         0.0776
     18 C16         1.2225   -0.6894   -0.0191 C.ar      1 <0>        -0.0989
     19 O3          2.4185   -2.7395   -0.0370 O.3       1 <0>        -0.4852
     20 O4          0.0484   -4.1367   -0.0214 O.3       1 <0>        -0.4863
     21 H1         -7.3109    7.6072    0.0781 H         1 <0>         0.1253
     22 H2         -6.1566    7.1409    2.2026 H         1 <0>         0.1263
     23 H3         -3.8688    6.2304    2.1868 H         1 <0>         0.1246
     24 H4         -3.8853    6.2630   -2.0780 H         1 <0>         0.1245
     25 H5         -6.1770    7.1637   -2.0622 H         1 <0>         0.1262
     26 H6         -1.8065    5.9674    0.9331 H         1 <0>         0.0784
     27 H7         -1.8149    5.9771   -0.8469 H         1 <0>         0.0783
     28 H8         -2.1248    1.5722    0.0207 H         1 <0>         0.1432
     29 H9          0.9100    2.0180    0.0042 H         1 <0>         0.1430
     30 H10        -2.1428   -0.1970    0.0211 H         1 <0>         0.1396
     31 H11        -2.1052   -2.6528    0.0080 H         1 <0>         0.1406
     32 H12         2.1521   -0.1397   -0.0295 H         1 <0>         0.1421
     33 H13         2.7521   -2.9283   -0.9247 H         1 <0>         0.3903
     34 H14         0.0442   -4.5250   -0.9070 H         1 <0>         0.3924
@<TRIPOS>BOND
     1    1    6 ar
     2    1    2 ar
     3    1   21 1
     4    2    3 ar
     5    2   22 1
     6    3    4 ar
     7    3   23 1
     8    4    5 ar
     9    4    7 1
    10    5    6 ar
    11    5   24 1
    12    6   25 1
    13    7    8 1
    14    7   26 1
    15    7   27 1
    16    8    9 1
    17    9   10 2
    18    9   11 1
    19   11   12 2
    20   11   28 1
    21   12   13 1
    22   12   29 1
    23   13   18 ar
    24   13   14 ar
    25   14   15 ar
    26   14   30 1
    27   15   16 ar
    28   15   31 1
    29   16   17 ar
    30   16   20 1
    31   17   18 ar
    32   17   19 1
    33   18   32 1
    34   19   33 1
    35   20   34 1
@<TRIPOS>MOLECULE
ZINC01621007
   32    33     0     0     0
SMALL
USER_CHARGES
5-acetylamino-4-hydroxy-naphthalene-2,7-disulfonic acid
@<TRIPOS>ATOM
      1 C1         -4.2689   -1.7530   -4.2721 C.3       1 <0>        -0.1650
      2 C2         -3.3160   -0.8069   -3.5880 C.2       1 <0>         0.4924
      3 O1         -2.3232   -1.2372   -3.0400 O.2       1 <0>        -0.5204
      4 N1         -3.5669    0.5173   -3.5852 N.am      1 <0>        -0.6597
      5 C3         -2.6393    1.4022   -3.0329 C.ar      1 <0>         0.1026
      6 C4         -1.9058    1.0380   -1.9235 C.ar      1 <0>        -0.0249
      7 C5         -0.9826    1.9149   -1.3625 C.ar      1 <0>        -0.6535
      8 C6         -0.7698    3.1487   -1.8982 C.ar      1 <0>        -0.0064
      9 C7         -1.4928    3.5555   -3.0326 C.ar      1 <0>        -0.0745
     10 C8         -2.4392    2.6733   -3.6085 C.ar      1 <0>        -0.0291
     11 C9         -3.1624    3.0819   -4.7458 C.ar      1 <0>         0.0613
     12 C10        -2.9379    4.3319   -5.2779 C.ar      1 <0>        -0.0432
     13 C11        -2.0054    5.1923   -4.7049 C.ar      1 <0>        -0.6636
     14 C12        -1.2921    4.8234   -3.6058 C.ar      1 <0>         0.0075
     15 S1         -1.7439    6.7840   -5.4140 S.o2      1 <0>         2.7025
     16 O2         -2.9301    7.1121   -6.1242 O.2       1 <0>        -1.0586
     17 O3         -1.2220    7.6082   -4.3807 O.2       1 <0>        -1.0536
     18 O4         -4.0743    2.2504   -5.3125 O.3       1 <0>        -0.4931
     19 S2         -0.0690    1.4183    0.0599 S.o2      1 <0>         2.7008
     20 O5         -0.0542   -0.0027    0.0573 O.2       1 <0>        -1.0526
     21 O6          1.1225    2.1925    0.0679 O.2       1 <0>        -1.0558
     22 H1         -3.9710   -1.8792   -5.3130 H         1 <0>         0.0921
     23 H2         -4.2463   -2.7191   -3.7680 H         1 <0>         0.0926
     24 H3         -5.2788   -1.3448   -4.2302 H         1 <0>         0.0791
     25 H4         -4.3920    0.8554   -3.9670 H         1 <0>         0.4152
     26 H5         -2.0526    0.0631   -1.4825 H         1 <0>         0.1509
     27 H6         -0.0456    3.8140   -1.4517 H         1 <0>         0.1467
     28 H7         -3.4911    4.6483   -6.1498 H         1 <0>         0.1398
     29 H8         -0.5730    5.5040   -3.1744 H         1 <0>         0.1477
     30 H9         -3.7089    1.6745   -5.9980 H         1 <0>         0.3796
     31 O7         -0.6411    6.6382   -6.4528 O.3       1 <0>        -1.0779
     32 O8         -0.8718    1.8427    1.2812 O.3       1 <0>        -1.0793
@<TRIPOS>BOND
     1    1    2 1
     2    1   22 1
     3    1   23 1
     4    1   24 1
     5    2    3 2
     6    2    4 am
     7    4    5 1
     8    4   25 1
     9    5   10 ar
    10    5    6 ar
    11    6    7 ar
    12    6   26 1
    13    7    8 ar
    14    7   19 1
    15    8    9 ar
    16    8   27 1
    17    9   14 ar
    18    9   10 ar
    19   10   11 ar
    20   11   12 ar
    21   11   18 1
    22   12   13 ar
    23   12   28 1
    24   13   14 ar
    25   13   15 1
    26   14   29 1
    27   15   16 2
    28   15   17 2
    29   15   31 1
    30   18   30 1
    31   19   20 2
    32   19   21 2
    33   19   32 1
@<TRIPOS>MOLECULE
ZINC18284963
   60    62     0     0     0
SMALL
USER_CHARGES

@<TRIPOS>ATOM
      1 C1         -0.0166    1.3733    0.0096 C.ar      1 <0>        -0.0884
      2 C2          1.1861    2.0890    0.0020 C.ar      1 <0>        -0.0631
      3 C3          2.4053    1.4009   -0.0134 C.ar      1 <0>        -0.1050
      4 C4          2.4145    0.0204   -0.0209 C.ar      1 <0>         0.0768
      5 C5          1.2117   -0.6856   -0.0137 C.ar      1 <0>         0.0905
      6 C6          0.0021   -0.0041    0.0020 C.ar      1 <0>        -0.1306
      7 O1          1.2237   -2.0437   -0.0220 O.3       1 <0>        -0.4883
      8 O2          3.5969   -0.6514   -0.0358 O.3       1 <0>        -0.4875
      9 C7          1.1693    3.5585    0.0095 C.2       1 <0>        -0.0175
     10 C8         -0.0083    4.2205    0.0239 C.2       1 <0>        -0.1745
     11 C9         -0.0245    5.6381    0.0312 C.2       1 <0>         0.4916
     12 O3          1.0220    6.2584    0.0245 O.2       1 <0>        -0.5254
     13 O4         -1.2006    6.2993    0.0455 O.3       1 <0>        -0.2853
     14 C10        -1.1422    7.7271    0.0522 C.3       1 <0>         0.1100
     15 H1         -0.2429    8.0564   -0.4685 H         1 <0>         0.0846
     16 C11        -2.3762    8.2914   -0.6548 C.3       1 <0>         0.1143
     17 C12        -3.6384    7.8292    0.0760 C.3       1 <0>         0.0680
     18 H2         -4.5176    8.2312   -0.4276 H         1 <0>         0.0802
     19 C13        -3.6041    8.3315    1.5208 C.3       1 <0>        -0.1061
     20 C14        -2.3701    7.7673    2.2277 C.3       1 <0>         0.0743
     21 C15        -1.1078    8.2294    1.4969 C.3       1 <0>        -0.1480
     22 O5         -2.4285    6.3395    2.2211 O.3       1 <0>        -0.5273
     23 C16        -2.3362    8.2620    3.6508 C.2       1 <0>         0.4766
     24 O6         -2.3600    7.4657    4.5737 O.co2     1 <0>        -0.6840
     25 O7         -2.2851    9.4586    3.8791 O.co2     1 <0>        -0.6943
     26 O8         -3.6969    6.4014    0.0694 O.3       1 <0>        -0.2789
     27 C17        -4.9232    5.8385    0.0780 C.2       1 <0>         0.4961
     28 O9         -5.9154    6.5422    0.0908 O.2       1 <0>        -0.5298
     29 C18        -5.0552    4.4269    0.0721 C.2       1 <0>        -0.1685
     30 C19        -6.2830    3.8633    0.0808 C.2       1 <0>        -0.0216
     31 C20        -6.4199    2.4001    0.0747 C.ar      1 <0>        -0.0611
     32 C21        -7.6913    1.8139    0.0777 C.ar      1 <0>        -0.1060
     33 C22        -7.8134    0.4387    0.0715 C.ar      1 <0>         0.0770
     34 C23        -6.6723   -0.3631    0.0626 C.ar      1 <0>         0.0893
     35 C24        -5.4109    0.2173    0.0600 C.ar      1 <0>        -0.1303
     36 C25        -5.2797    1.5886    0.0599 C.ar      1 <0>        -0.0892
     37 O10        -6.7952   -1.7157    0.0569 O.3       1 <0>        -0.4874
     38 O11        -9.0467   -0.1342    0.0745 O.3       1 <0>        -0.4865
     39 O12        -2.4083    7.8222   -2.0042 O.3       1 <0>        -0.5532
     40 H3         -0.9589    1.9007    0.0259 H         1 <0>         0.1403
     41 H4          3.3361    1.9486   -0.0197 H         1 <0>         0.1398
     42 H5         -0.9266   -0.5553    0.0079 H         1 <0>         0.1380
     43 H6          1.2356   -2.4423    0.8590 H         1 <0>         0.3891
     44 H7          3.9473   -0.8504    0.8433 H         1 <0>         0.3881
     45 H8          2.0983    4.1092    0.0036 H         1 <0>         0.1401
     46 H9         -0.9373    3.6698    0.0298 H         1 <0>         0.1416
     47 H10        -2.3316    9.3804   -0.6497 H         1 <0>         0.0944
     48 H11        -3.5595    9.4206    1.5259 H         1 <0>         0.0924
     49 H12        -4.5033    8.0023    2.0414 H         1 <0>         0.0739
     50 H13        -0.2287    7.8274    2.0006 H         1 <0>         0.0727
     51 H14        -1.0632    9.3185    1.5020 H         1 <0>         0.0908
     52 H15        -1.6761    5.9130    2.6536 H         1 <0>         0.3596
     53 H16        -4.1743    3.8022    0.0607 H         1 <0>         0.1403
     54 H17        -7.1639    4.4880    0.0921 H         1 <0>         0.1395
     55 H18        -8.5742    2.4358    0.0853 H         1 <0>         0.1397
     56 H19        -4.5303   -0.4080    0.0538 H         1 <0>         0.1378
     57 H20        -4.2973    2.0373    0.0530 H         1 <0>         0.1401
     58 H21        -6.8348   -2.1033   -0.8281 H         1 <0>         0.3878
     59 H22        -9.4076   -0.2955   -0.8081 H         1 <0>         0.3868
     60 H23        -3.1658    8.1412   -2.5136 H         1 <0>         0.3759
@<TRIPOS>BOND
     1    1    6 ar
     2    1    2 ar
     3    1   40 1
     4    2    3 ar
     5    2    9 1
     6    3    4 ar
     7    3   41 1
     8    4    5 ar
     9    4    8 1
    10    5    6 ar
    11    5    7 1
    12    6   42 1
    13    7   43 1
    14    8   44 1
    15    9   10 2
    16    9   45 1
    17   10   11 1
    18   10   46 1
    19   11   12 2
    20   11   13 1
    21   13   14 1
    22   14   15 1
    23   14   21 1
    24   14   16 1
    25   16   17 1
    26   16   39 1
    27   16   47 1
    28   17   18 1
    29   17   19 1
    30   17   26 1
    31   19   20 1
    32   19   48 1
    33   19   49 1
    34   20   21 1
    35   20   22 1
    36   20   23 1
    37   21   50 1
    38   21   51 1
    39   22   52 1
    40   23   24 2
    41   23   25 1
    42   26   27 1
    43   27   28 2
    44   27   29 1
    45   29   30 2
    46   29   53 1
    47   30   31 1
    48   30   54 1
    49   31   36 ar
    50   31   32 ar
    51   32   33 ar
    52   32   55 1
    53   33   34 ar
    54   33   38 1
    55   34   35 ar
    56   34   37 1
    57   35   36 ar
    58   35   56 1
    59   36   57 1
    60   37   58 1
    61   38   59 1
    62   39   60 1
@<TRIPOS>MOLECULE
ZINC38143877
   60    62     0     0     0
SMALL
USER_CHARGES

@<TRIPOS>ATOM
      1 C1         -0.0166    1.3733    0.0096 C.ar      1 <0>        -0.0870
      2 C2          1.1861    2.0890    0.0020 C.ar      1 <0>        -0.0660
      3 C3          2.4053    1.4009   -0.0134 C.ar      1 <0>        -0.1039
      4 C4          2.4145    0.0204   -0.0209 C.ar      1 <0>         0.0759
      5 C5          1.2117   -0.6856   -0.0137 C.ar      1 <0>         0.0916
      6 C6          0.0021   -0.0041    0.0020 C.ar      1 <0>        -0.1308
      7 O1          1.2237   -2.0437   -0.0220 O.3       1 <0>        -0.4881
      8 O2          3.5969   -0.6514   -0.0358 O.3       1 <0>        -0.4872
      9 C7          1.1693    3.5585    0.0095 C.2       1 <0>        -0.0116
     10 C8         -0.0083    4.2205    0.0239 C.2       1 <0>        -0.1811
     11 C9         -0.0245    5.6381    0.0312 C.2       1 <0>         0.4978
     12 O3          1.0220    6.2584    0.0245 O.2       1 <0>        -0.5202
     13 O4         -1.2006    6.2993    0.0455 O.3       1 <0>        -0.3080
     14 C10        -1.1422    7.7271    0.0522 C.3       1 <0>         0.1093
     15 H1         -0.2429    8.0564   -0.4685 H         1 <0>         0.0934
     16 C11        -2.3762    8.2914   -0.6548 C.3       1 <0>         0.1221
     17 C12        -3.6384    7.8292    0.0760 C.3       1 <0>         0.0634
     18 H2         -3.6830    6.7401    0.0709 H         1 <0>         0.1115
     19 C13        -3.6041    8.3315    1.5208 C.3       1 <0>        -0.0989
     20 C14        -2.3701    7.7673    2.2277 C.3       1 <0>         0.0731
     21 C15        -1.1078    8.2294    1.4969 C.3       1 <0>        -0.1504
     22 O5         -2.4285    6.3395    2.2211 O.3       1 <0>        -0.5382
     23 C16        -2.3362    8.2620    3.6508 C.2       1 <0>         0.4798
     24 O6         -2.3600    7.4657    4.5737 O.co2     1 <0>        -0.6818
     25 O7         -2.2851    9.4586    3.8791 O.co2     1 <0>        -0.6909
     26 O8         -4.7910    8.3562   -0.5842 O.3       1 <0>        -0.3531
     27 C17        -5.9226    7.6241   -0.5190 C.2       1 <0>         0.4944
     28 O9         -5.9292    6.5669    0.0826 O.2       1 <0>        -0.4958
     29 C18        -7.1039    8.0872   -1.1517 C.2       1 <0>        -0.1891
     30 C19        -8.2368    7.3542   -1.0864 C.2       1 <0>        -0.0056
     31 C20        -9.4613    7.8341   -1.7422 C.ar      1 <0>        -0.0683
     32 C21       -10.6380    7.0790   -1.6710 C.ar      1 <0>        -0.1021
     33 C22       -11.7853    7.5354   -2.2887 C.ar      1 <0>         0.0773
     34 C23       -11.7704    8.7455   -2.9819 C.ar      1 <0>         0.0930
     35 C24       -10.6037    9.4950   -3.0536 C.ar      1 <0>        -0.1320
     36 C25        -9.4559    9.0502   -2.4349 C.ar      1 <0>        -0.0882
     37 O10       -12.9002    9.1920   -3.5891 O.3       1 <0>        -0.4877
     38 O11       -12.9302    6.8046   -2.2216 O.3       1 <0>        -0.4865
     39 O12        -2.4083    7.8222   -2.0042 O.3       1 <0>        -0.5568
     40 H3         -0.9589    1.9007    0.0259 H         1 <0>         0.1417
     41 H4          3.3361    1.9486   -0.0197 H         1 <0>         0.1403
     42 H5         -0.9266   -0.5553    0.0079 H         1 <0>         0.1389
     43 H6          1.2356   -2.4423    0.8590 H         1 <0>         0.3891
     44 H7          3.9473   -0.8504    0.8433 H         1 <0>         0.3878
     45 H8          2.0983    4.1092    0.0036 H         1 <0>         0.1413
     46 H9         -0.9373    3.6698    0.0298 H         1 <0>         0.1433
     47 H10        -2.3316    9.3804   -0.6497 H         1 <0>         0.0847
     48 H11        -3.5595    9.4206    1.5259 H         1 <0>         0.0855
     49 H12        -4.5033    8.0023    2.0414 H         1 <0>         0.0725
     50 H13        -0.2287    7.8274    2.0006 H         1 <0>         0.0758
     51 H14        -1.0632    9.3185    1.5020 H         1 <0>         0.0960
     52 H15        -1.6761    5.9130    2.6536 H         1 <0>         0.3656
     53 H16        -7.0980    9.0258   -1.6858 H         1 <0>         0.1417
     54 H17        -8.2427    6.4155   -0.5523 H         1 <0>         0.1433
     55 H18       -10.6483    6.1417   -1.1345 H         1 <0>         0.1417
     56 H19       -10.5971   10.4310   -3.5922 H         1 <0>         0.1389
     57 H20        -8.5512    9.6376   -2.4882 H         1 <0>         0.1402
     58 H21       -13.4562    9.7475   -3.0258 H         1 <0>         0.3897
     59 H22       -13.4899    7.0192   -1.4628 H         1 <0>         0.3887
     60 H23        -3.1658    8.1412   -2.5136 H         1 <0>         0.3802
@<TRIPOS>BOND
     1    1    6 ar
     2    1    2 ar
     3    1   40 1
     4    2    3 ar
     5    2    9 1
     6    3    4 ar
     7    3   41 1
     8    4    5 ar
     9    4    8 1
    10    5    6 ar
    11    5    7 1
    12    6   42 1
    13    7   43 1
    14    8   44 1
    15    9   10 2
    16    9   45 1
    17   10   11 1
    18   10   46 1
    19   11   12 2
    20   11   13 1
    21   13   14 1
    22   14   15 1
    23   14   21 1
    24   14   16 1
    25   16   17 1
    26   16   39 1
    27   16   47 1
    28   17   18 1
    29   17   19 1
    30   17   26 1
    31   19   20 1
    32   19   48 1
    33   19   49 1
    34   20   21 1
    35   20   22 1
    36   20   23 1
    37   21   50 1
    38   21   51 1
    39   22   52 1
    40   23   24 2
    41   23   25 1
    42   26   27 1
    43   27   28 2
    44   27   29 1
    45   29   30 2
    46   29   53 1
    47   30   31 1
    48   30   54 1
    49   31   36 ar
    50   31   32 ar
    51   32   33 ar
    52   32   55 1
    53   33   34 ar
    54   33   38 1
    55   34   35 ar
    56   34   37 1
    57   35   36 ar
    58   35   56 1
    59   36   57 1
    60   37   58 1
    61   38   59 1
    62   39   60 1
@<TRIPOS>MOLECULE
ZINC04098735
   60    62     0     0     0
SMALL
USER_CHARGES

@<TRIPOS>ATOM
      1 C1         -0.0169    1.3952    0.0097 C.ar      1 <0>        -0.0889
      2 C2          1.1671    2.0997    0.0022 C.ar      1 <0>        -0.1318
      3 C3          2.3804    1.4252   -0.0130 C.ar      1 <0>         0.0919
      4 C4          2.4077    0.0306   -0.0212 C.ar      1 <0>         0.0774
      5 C5          1.2264   -0.6835   -0.0138 C.ar      1 <0>        -0.1025
      6 C6          0.0021   -0.0041    0.0020 C.ar      1 <0>        -0.0664
      7 C7         -1.2592   -0.7582    0.0105 C.2       1 <0>        -0.0088
      8 C8         -2.4393   -0.1007    0.0257 C.2       1 <0>        -0.1853
      9 C9         -3.6561   -0.8283    0.0339 C.2       1 <0>         0.4946
     10 O1         -3.6375   -2.0447    0.0272 O.2       1 <0>        -0.4974
     11 O2         -4.8347   -0.1717    0.0492 O.3       1 <0>        -0.3472
     12 C10        -6.0211   -0.9682    0.0567 C.3       1 <0>         0.1033
     13 H1         -5.8216   -1.9124    0.5635 H         1 <0>         0.1160
     14 C11        -6.4589   -1.2447   -1.3831 C.3       1 <0>        -0.0974
     15 C12        -7.7291   -2.0976   -1.3750 C.3       1 <0>         0.0747
     16 C13        -8.8416   -1.3486   -0.6387 C.3       1 <0>        -0.1647
     17 C14        -8.4039   -1.0720    0.8011 C.3       1 <0>         0.1012
     18 H2         -9.1964   -0.5384    1.3257 H         1 <0>         0.0602
     19 C15        -7.1336   -0.2192    0.7930 C.3       1 <0>         0.1110
     20 H3         -7.3331    0.7250    0.2862 H         1 <0>         0.1040
     21 O3         -6.7248    0.0391    2.1377 O.3       1 <0>        -0.3274
     22 C16        -7.2196    1.1479    2.7262 C.2       1 <0>         0.4962
     23 O4         -7.9778    1.8752    2.1129 O.2       1 <0>        -0.5128
     24 C17        -6.8559    1.4655    4.0592 C.2       1 <0>        -0.1883
     25 C18        -7.3513    2.5757    4.6484 C.2       1 <0>        -0.0048
     26 C19        -6.9743    2.9048    6.0301 C.ar      1 <0>        -0.0694
     27 C20        -6.0975    2.0724    6.7357 C.ar      1 <0>        -0.0876
     28 C21        -5.7459    2.3833    8.0306 C.ar      1 <0>        -0.1317
     29 C22        -6.2590    3.5211    8.6393 C.ar      1 <0>         0.0939
     30 C23        -7.1330    4.3554    7.9430 C.ar      1 <0>         0.0771
     31 C24        -7.4864    4.0546    6.6425 C.ar      1 <0>        -0.1022
     32 O5         -7.6329    5.4687    8.5432 O.3       1 <0>        -0.4861
     33 O6         -5.9089    3.8221    9.9166 O.3       1 <0>        -0.4872
     34 O7         -8.1423   -2.3098    1.4655 O.3       1 <0>        -0.5388
     35 C25        -8.1603   -2.3699   -2.7931 C.2       1 <0>         0.4783
     36 O8         -8.2365   -3.5177   -3.1973 O.co2     1 <0>        -0.6824
     37 O9         -8.4328   -1.4426   -3.5362 O.co2     1 <0>        -0.6905
     38 O10        -7.4676   -3.3354   -0.7106 O.3       1 <0>        -0.5359
     39 O11         3.5987   -0.6259   -0.0370 O.3       1 <0>        -0.4860
     40 O12         3.5442    2.1252   -0.0204 O.3       1 <0>        -0.4871
     41 H4         -0.9592    1.9225    0.0260 H         1 <0>         0.1399
     42 H5          1.1513    3.1796    0.0078 H         1 <0>         0.1385
     43 H6          1.2463   -1.7633   -0.0201 H         1 <0>         0.1418
     44 H7         -1.2427   -1.8381    0.0045 H         1 <0>         0.1438
     45 H8         -2.4557    0.9791    0.0317 H         1 <0>         0.1408
     46 H9         -6.6583   -0.3006   -1.8899 H         1 <0>         0.0861
     47 H10        -5.6663   -1.7783   -1.9077 H         1 <0>         0.0778
     48 H11        -9.0411   -0.4044   -1.1455 H         1 <0>         0.0879
     49 H12        -9.7465   -1.9561   -0.6329 H         1 <0>         0.0725
     50 H13        -6.1828    0.8198    4.6036 H         1 <0>         0.1420
     51 H14        -8.0244    3.2213    4.1039 H         1 <0>         0.1430
     52 H15        -5.6972    1.1867    6.2650 H         1 <0>         0.1404
     53 H16        -5.0696    1.7401    8.5742 H         1 <0>         0.1392
     54 H17        -8.1597    4.7024    6.1009 H         1 <0>         0.1414
     55 H18        -7.0914    6.2599    8.4178 H         1 <0>         0.3883
     56 H19        -5.1212    4.3785    9.9878 H         1 <0>         0.3896
     57 H20        -8.9054   -2.9023    1.5081 H         1 <0>         0.3733
     58 H21        -8.2307   -3.9278   -0.6680 H         1 <0>         0.3661
     59 H22         3.9520   -0.8208    0.8417 H         1 <0>         0.3878
     60 H23         3.8897    2.3232    0.8608 H         1 <0>         0.3886
@<TRIPOS>BOND
     1    1    6 ar
     2    1    2 ar
     3    1   41 1
     4    2    3 ar
     5    2   42 1
     6    3    4 ar
     7    3   40 1
     8    4    5 ar
     9    4   39 1
    10    5    6 ar
    11    5   43 1
    12    6    7 1
    13    7    8 2
    14    7   44 1
    15    8    9 1
    16    8   45 1
    17    9   10 2
    18    9   11 1
    19   11   12 1
    20   12   13 1
    21   12   19 1
    22   12   14 1
    23   14   15 1
    24   14   46 1
    25   14   47 1
    26   15   16 1
    27   15   35 1
    28   15   38 1
    29   16   17 1
    30   16   48 1
    31   16   49 1
    32   17   18 1
    33   17   19 1
    34   17   34 1
    35   19   20 1
    36   19   21 1
    37   21   22 1
    38   22   23 2
    39   22   24 1
    40   24   25 2
    41   24   50 1
    42   25   26 1
    43   25   51 1
    44   26   31 ar
    45   26   27 ar
    46   27   28 ar
    47   27   52 1
    48   28   29 ar
    49   28   53 1
    50   29   30 ar
    51   29   33 1
    52   30   31 ar
    53   30   32 1
    54   31   54 1
    55   32   55 1
    56   33   56 1
    57   34   57 1
    58   35   36 2
    59   35   37 1
    60   38   58 1
    61   39   59 1
    62   40   60 1
@<TRIPOS>MOLECULE
ZINC03993703
   60    64     0     0     0
SMALL
USER_CHARGES

@<TRIPOS>ATOM
      1 C1          0.0021   -0.0041    0.0020 C.ar      1 <0>        -0.1412
      2 C2         -0.0167    1.3835    0.0096 C.ar      1 <0>        -0.0719
      3 C3          1.1597    2.0985    0.0023 C.ar      1 <0>        -0.1350
      4 C4          2.3904    1.4307   -0.0206 C.ar      1 <0>        -0.1191
      5 C5          2.4094    0.0296   -0.0669 C.ar      1 <0>        -0.1333
      6 C6          1.1977   -0.6796   -0.0378 C.ar      1 <0>        -0.0768
      7 C7          3.6622   -0.7499   -0.1627 C.2       1 <0>         0.5459
      8 O1          4.7542   -0.2306   -0.2941 O.2       1 <0>        -0.4123
      9 N1          3.4878   -2.1091   -0.0914 N.am      1 <0>        -0.5560
     10 N2          4.4857   -2.9367   -0.6601 N.am      1 <0>        -0.5329
     11 C8          5.8048   -2.7490   -0.3478 C.2       1 <0>         0.5682
     12 O2          6.2752   -1.6713   -0.0368 O.2       1 <0>        -0.3810
     13 C9          6.5978   -3.9937   -0.4290 C.ar      1 <0>        -0.1542
     14 C10         5.9222   -5.1498    0.0300 C.ar      1 <0>        -0.0728
     15 C11         6.5061   -6.3864   -0.0540 C.ar      1 <0>        -0.1251
     16 C12         7.7730   -6.5176   -0.6052 C.ar      1 <0>        -0.0730
     17 C13         8.4587   -5.4113   -1.0338 C.ar      1 <0>        -0.1027
     18 C14         7.8995   -4.1184   -0.9180 C.ar      1 <0>         0.0013
     19 S1          8.9565   -2.7941   -1.3628 S.3       1 <0>        -0.1918
     20 S2          8.0408   -1.1674   -0.5063 S.3       1 <0>         0.2459
     21 C15         9.4704   -0.3780    0.1641 C.ar      1 <0>        -0.1193
     22 C16        10.7096   -1.0166    0.0437 C.ar      1 <0>        -0.1352
     23 C17        11.8411   -0.4426    0.5802 C.ar      1 <0>        -0.0717
     24 C18        11.7661    0.7719    1.2467 C.ar      1 <0>        -0.1419
     25 C19        10.5619    1.4216    1.3698 C.ar      1 <0>        -0.0747
     26 C20         9.4035    0.8689    0.8022 C.ar      1 <0>        -0.1345
     27 C21         8.1557    1.6582    0.8626 C.2       1 <0>         0.5464
     28 O3          7.1443    1.3234    0.2758 O.2       1 <0>        -0.4153
     29 N3          8.2188    2.7945    1.6263 N.am      1 <0>        -0.5545
     30 N4          7.3197    3.8420    1.3153 N.am      1 <0>        -0.5338
     31 C22         5.9704    3.6081    1.2804 C.2       1 <0>         0.5708
     32 O4          5.4827    2.5381    0.9699 O.2       1 <0>        -0.3821
     33 C23         5.1689    4.7901    1.6585 C.ar      1 <0>        -0.1563
     34 C24         5.7397    5.5795    2.6835 C.ar      1 <0>        -0.0713
     35 C25         5.1381    6.7396    3.0955 C.ar      1 <0>        -0.1260
     36 C26         3.9579    7.1579    2.4980 C.ar      1 <0>        -0.0720
     37 C27         3.3756    6.4041    1.5125 C.ar      1 <0>        -0.1031
     38 C28         3.9527    5.1815    1.0966 C.ar      1 <0>         0.0022
     39 S3          3.0212    4.2636   -0.0673 S.3       1 <0>        -0.1905
     40 S4          3.8692    2.3953    0.0264 S.3       1 <0>         0.2453
     41 H1         -0.9265   -0.5549    0.0271 H         1 <0>         0.1278
     42 H2         -0.9616    1.9065    0.0170 H         1 <0>         0.1279
     43 H3          1.1334    3.1781    0.0141 H         1 <0>         0.1439
     44 H4          1.2058   -1.7595   -0.0471 H         1 <0>         0.1231
     45 H5          2.7052   -2.4911    0.3357 H         1 <0>         0.4249
     46 H6          4.2325   -3.6420   -1.2760 H         1 <0>         0.4249
     47 H7          4.9327   -5.0558    0.4524 H         1 <0>         0.1332
     48 H8          5.9812   -7.2579    0.3085 H         1 <0>         0.1355
     49 H9          8.2204   -7.4963   -0.6970 H         1 <0>         0.1367
     50 H10         9.4410   -5.5292   -1.4669 H         1 <0>         0.1395
     51 H11        10.7792   -1.9632   -0.4715 H         1 <0>         0.1435
     52 H12        12.7936   -0.9419    0.4816 H         1 <0>         0.1278
     53 H13        12.6584    1.2088    1.6702 H         1 <0>         0.1275
     54 H14        10.5065    2.3584    1.9043 H         1 <0>         0.1236
     55 H15         8.8559    2.8774    2.3531 H         1 <0>         0.4253
     56 H16         7.6606    4.7301    1.1256 H         1 <0>         0.4249
     57 H17         6.6619    5.2634    3.1483 H         1 <0>         0.1335
     58 H18         5.5821    7.3277    3.8851 H         1 <0>         0.1355
     59 H19         3.4959    8.0826    2.8108 H         1 <0>         0.1367
     60 H20         2.4637    6.7482    1.0473 H         1 <0>         0.1398
@<TRIPOS>BOND
     1    1    6 ar
     2    1    2 ar
     3    1   41 1
     4    2    3 ar
     5    2   42 1
     6    3    4 ar
     7    3   43 1
     8    4   40 1
     9    4    5 ar
    10    5    6 ar
    11    5    7 1
    12    6   44 1
    13    7    8 2
    14    7    9 am
    15    9   10 1
    16    9   45 1
    17   10   11 am
    18   10   46 1
    19   11   12 2
    20   11   13 1
    21   13   18 ar
    22   13   14 ar
    23   14   15 ar
    24   14   47 1
    25   15   16 ar
    26   15   48 1
    27   16   17 ar
    28   16   49 1
    29   17   18 ar
    30   17   50 1
    31   18   19 1
    32   19   20 1
    33   20   21 1
    34   21   26 ar
    35   21   22 ar
    36   22   23 ar
    37   22   51 1
    38   23   24 ar
    39   23   52 1
    40   24   25 ar
    41   24   53 1
    42   25   26 ar
    43   25   54 1
    44   26   27 1
    45   27   28 2
    46   27   29 am
    47   29   30 1
    48   29   55 1
    49   30   31 am
    50   30   56 1
    51   31   32 2
    52   31   33 1
    53   33   38 ar
    54   33   34 ar
    55   34   35 ar
    56   34   57 1
    57   35   36 ar
    58   35   58 1
    59   36   37 ar
    60   36   59 1
    61   37   38 ar
    62   37   60 1
    63   38   39 1
    64   39   40 1
@<TRIPOS>MOLECULE
ZINC00026181
   30    31     0     0     0
SMALL
USER_CHARGES
2-sulfanyl-N'-(2-sulfanylbenzoyl)-benzohydrazide
@<TRIPOS>ATOM
      1 C1          0.0607    2.1000    8.5491 C.ar      1 <0>        -0.1967
      2 C2          0.0811    1.3939    9.7421 C.ar      1 <0>        -0.0858
      3 C3          0.0984    0.0150    9.7376 C.ar      1 <0>        -0.1601
      4 C4          0.0950   -0.6776    8.5319 C.ar      1 <0>         0.1699
      5 C5          0.0738    0.0349    7.3220 C.ar      1 <0>        -0.1724
      6 C6          0.0618    1.4321    7.3445 C.ar      1 <0>        -0.0652
      7 C7          0.0705   -0.6863    6.0366 C.2       1 <0>         0.5405
      8 O1          0.0861   -1.9022    6.0214 O.2       1 <0>        -0.4777
      9 N1          0.0501    0.0019    4.8779 N.am      1 <0>        -0.5360
     10 N2          0.0469   -0.6836    3.6560 N.am      1 <0>        -0.5359
     11 C8          0.0266    0.0046    2.4973 C.2       1 <0>         0.5405
     12 O2          0.0110    1.2205    2.5125 O.2       1 <0>        -0.4777
     13 C9          0.0232   -0.7166    1.2119 C.ar      1 <0>        -0.1724
     14 C10         0.0416   -2.1137    1.1894 C.ar      1 <0>        -0.0652
     15 C11         0.0388   -2.7817   -0.0152 C.ar      1 <0>        -0.1967
     16 C12         0.0178   -2.0756   -1.2082 C.ar      1 <0>        -0.0858
     17 C13        -0.0057   -0.6967   -1.2036 C.ar      1 <0>        -0.1602
     18 C14         0.0021   -0.0041    0.0020 C.ar      1 <0>         0.1699
     19 H1          0.0476    3.1798    8.5643 H         1 <0>         0.1087
     20 H2          0.0839    1.9273   10.6812 H         1 <0>         0.1061
     21 H3          0.1150   -0.5275   10.6713 H         1 <0>         0.1139
     22 H4          0.0497    1.9876    6.4184 H         1 <0>         0.1114
     23 H5          0.0377    0.9717    4.8899 H         1 <0>         0.4163
     24 H6          0.0594   -1.6534    3.6440 H         1 <0>         0.4163
     25 H7          0.0575   -2.6691    2.1154 H         1 <0>         0.1114
     26 H8          0.0526   -3.8615   -0.0305 H         1 <0>         0.1087
     27 H9          0.0158   -2.6090   -2.1473 H         1 <0>         0.1061
     28 H10        -0.0261   -0.1543   -2.1373 H         1 <0>         0.1139
     29 S1         -0.0218    1.7577    0.0117 S.3       1 <0>        -0.8730
     30 S2          0.1177   -2.4395    8.5222 S.3       1 <0>        -0.8731
@<TRIPOS>BOND
     1    1    6 ar
     2    1    2 ar
     3    1   19 1
     4    2    3 ar
     5    2   20 1
     6    3    4 ar
     7    3   21 1
     8    4    5 ar
     9    4   30 1
    10    5    6 ar
    11    5    7 1
    12    6   22 1
    13    7    8 2
    14    7    9 am
    15    9   10 1
    16    9   23 1
    17   10   11 am
    18   10   24 1
    19   11   12 2
    20   11   13 1
    21   13   18 ar
    22   13   14 ar
    23   14   15 ar
    24   14   25 1
    25   15   16 ar
    26   15   26 1
    27   16   17 ar
    28   16   27 1
    29   17   18 ar
    30   17   28 1
    31   18   29 1
@<TRIPOS>MOLECULE
ZINC05462666
   66    71     0     0     0
SMALL
USER_CHARGES
trihydroxy-dimethyl-(trihydroxy-dimethyl-oxo-BLAHyl)-BLAHone
@<TRIPOS>ATOM
      1 C1          2.1509    1.5619   -1.2508 C.3       1 <0>        -0.1417
      2 C2          1.4217    2.0578   -0.0005 C.3       1 <0>        -0.1569
      3 H1          1.9099    1.7475    0.8152 H         1 <0>         0.1039
      4 C3         -0.0187    1.5258    0.0104 C.3       1 <0>         0.0961
      5 H2         -0.5296    1.8777    0.9067 H         1 <0>         0.0794
      6 O1         -0.7062    1.9990   -1.1470 O.3       1 <0>        -0.3007
      7 C4         -0.7052    3.3305   -1.4062 C.ar      1 <0>         0.2019
      8 C5         -1.6838    3.8608   -2.1955 C.ar      1 <0>        -0.1805
      9 C6         -1.6968    5.2349   -2.4869 C.ar      1 <0>         0.0670
     10 C7         -0.6907    6.0819   -1.9596 C.ar      1 <0>        -0.1565
     11 C8         -0.7099    7.4603   -2.2585 C.ar      1 <0>         0.1811
     12 C9         -1.7048    7.9770   -3.0595 C.ar      1 <0>        -0.1900
     13 C10        -2.6988    7.1535   -3.5822 C.ar      1 <0>         0.1863
     14 C11        -2.7078    5.7889   -3.3061 C.ar      1 <0>        -0.0887
     15 C12        -3.7681    4.9242   -3.8655 C.ar      1 <0>        -0.0876
     16 C13        -4.9671    4.7132   -3.1460 C.ar      1 <0>         0.0663
     17 C14        -5.1695    5.3227   -1.8967 C.ar      1 <0>        -0.1799
     18 C15        -6.3274    5.1148   -1.2052 C.ar      1 <0>         0.2015
     19 C16        -7.3334    4.2763   -1.7435 C.ar      1 <0>        -0.2785
     20 C17        -7.1613    3.6611   -2.9845 C.ar      1 <0>         0.2509
     21 C18        -5.9693    3.8781   -3.6991 C.ar      1 <0>        -0.1550
     22 C19        -5.7608    3.2748   -4.9570 C.ar      1 <0>         0.1797
     23 C20        -4.5850    3.4965   -5.6401 C.ar      1 <0>        -0.1904
     24 C21        -3.5946    4.3175   -5.1066 C.ar      1 <0>         0.1872
     25 O2         -2.4463    4.5241   -5.8013 O.3       1 <0>        -0.4849
     26 O3         -6.7181    2.4766   -5.4942 O.3       1 <0>        -0.4764
     27 O4         -8.1301    2.8649   -3.4943 O.3       1 <0>        -0.4574
     28 C22        -8.5645    4.0587   -0.9743 C.2       1 <0>         0.3988
     29 O5         -9.3585    3.1906   -1.2735 O.2       1 <0>        -0.4239
     30 C23        -8.7940    4.9740    0.2146 C.3       1 <0>        -0.1569
     31 H3         -9.4605    4.5569    0.8326 H         1 <0>         0.1039
     32 C24        -7.4399    5.1570    0.9150 C.3       1 <0>         0.0968
     33 H4         -7.0744    4.1896    1.2594 H         1 <0>         0.0795
     34 O6         -6.5044    5.7196   -0.0041 O.3       1 <0>        -0.3010
     35 C25        -7.6069    6.0952    2.1120 C.3       1 <0>        -0.1492
     36 C26        -9.3201    6.3284   -0.2645 C.3       1 <0>        -0.1412
     37 O7         -3.6690    7.6867   -4.3685 O.3       1 <0>        -0.4843
     38 O8          0.2509    8.2773   -1.7570 O.3       1 <0>        -0.4831
     39 C27         0.3155    5.5357   -1.1423 C.ar      1 <0>         0.2516
     40 C28         0.3032    4.1670   -0.8694 C.ar      1 <0>        -0.2780
     41 C29         1.3402    3.5734   -0.0166 C.2       1 <0>         0.4001
     42 O9          2.0944    4.2597    0.6420 O.2       1 <0>        -0.4247
     43 O10         1.2840    6.3283   -0.6263 O.3       1 <0>        -0.4650
     44 C30         0.0021   -0.0041    0.0020 C.3       1 <0>        -0.1496
     45 H5          1.6299    1.9169   -2.1400 H         1 <0>         0.0657
     46 H6          3.1719    1.9435   -1.2513 H         1 <0>         0.0659
     47 H7          2.1703    0.4721   -1.2519 H         1 <0>         0.0782
     48 H8         -2.4535    3.2196   -2.5993 H         1 <0>         0.1412
     49 H9         -1.7141    9.0333   -3.2843 H         1 <0>         0.1447
     50 H10        -4.4033    5.9600   -1.4804 H         1 <0>         0.1408
     51 H11        -4.4316    3.0319   -6.6029 H         1 <0>         0.1448
     52 H12        -1.7490    3.8824   -5.6085 H         1 <0>         0.3970
     53 H13        -7.3578    2.9467   -6.0464 H         1 <0>         0.3944
     54 H14        -8.7771    3.3328   -4.0398 H         1 <0>         0.3977
     55 H15        -7.9731    7.0623    1.7673 H         1 <0>         0.0751
     56 H16        -8.3214    5.6652    2.8138 H         1 <0>         0.0842
     57 H17        -6.6450    6.2266    2.6076 H         1 <0>         0.0740
     58 H18        -8.6095    6.7670   -0.9652 H         1 <0>         0.0656
     59 H19       -10.2809    6.1903   -0.7603 H         1 <0>         0.0657
     60 H20        -9.4445    6.9930    0.5904 H         1 <0>         0.0782
     61 H21        -4.4479    7.9890   -3.8817 H         1 <0>         0.3958
     62 H22         0.0310    8.6617   -0.8974 H         1 <0>         0.4021
     63 H23         2.0655    6.4119   -1.1897 H         1 <0>         0.4057
     64 H24         0.5293   -0.3651    0.8851 H         1 <0>         0.0841
     65 H25        -1.0205   -0.3814    0.0098 H         1 <0>         0.0743
     66 H26         0.5123   -0.3556   -0.8948 H         1 <0>         0.0752
@<TRIPOS>BOND
     1    1    2 1
     2    1   45 1
     3    1   46 1
     4    1   47 1
     5    2    3 1
     6    2   41 1
     7    2    4 1
     8    4    5 1
     9    4    6 1
    10    4   44 1
    11    6    7 1
    12    7   40 ar
    13    7    8 ar
    14    8    9 ar
    15    8   48 1
    16    9   14 ar
    17    9   10 ar
    18   10   11 ar
    19   10   39 ar
    20   11   12 ar
    21   11   38 1
    22   12   13 ar
    23   12   49 1
    24   13   14 ar
    25   13   37 1
    26   14   15 1
    27   15   24 ar
    28   15   16 ar
    29   16   21 ar
    30   16   17 ar
    31   17   18 ar
    32   17   50 1
    33   18   34 1
    34   18   19 ar
    35   19   20 ar
    36   19   28 1
    37   20   21 ar
    38   20   27 1
    39   21   22 ar
    40   22   23 ar
    41   22   26 1
    42   23   24 ar
    43   23   51 1
    44   24   25 1
    45   25   52 1
    46   26   53 1
    47   27   54 1
    48   28   29 2
    49   28   30 1
    50   30   31 1
    51   30   32 1
    52   30   36 1
    53   32   33 1
    54   32   34 1
    55   32   35 1
    56   35   55 1
    57   35   56 1
    58   35   57 1
    59   36   58 1
    60   36   59 1
    61   36   60 1
    62   37   61 1
    63   38   62 1
    64   39   40 ar
    65   39   43 1
    66   40   41 1
    67   41   42 2
    68   43   63 1
    69   44   64 1
    70   44   65 1
    71   44   66 1
@<TRIPOS>MOLECULE
ZINC05462669
   66    71     0     0     0
SMALL
USER_CHARGES

@<TRIPOS>ATOM
      1 C1         -0.0187    1.5258    0.0104 C.3       1 <0>        -0.1393
      2 C2          0.0021   -0.0041    0.0020 C.3       1 <0>        -0.1668
      3 H1          0.5110   -0.3633   -0.8924 H         1 <0>         0.1157
      4 C3         -1.4339   -0.5467    0.0401 C.3       1 <0>         0.0969
      5 H2         -1.4114   -1.6364    0.0278 H         1 <0>         0.0789
      6 O1         -2.0776   -0.0972    1.2317 O.3       1 <0>        -0.3016
      7 C4         -1.4675   -0.3155    2.4234 C.ar      1 <0>         0.1982
      8 C5         -2.2135   -0.3300    3.5660 C.ar      1 <0>        -0.1683
      9 C6         -1.6025   -0.5462    4.8122 C.ar      1 <0>         0.0709
     10 C7         -0.2028   -0.7516    4.8906 C.ar      1 <0>        -0.1550
     11 C8          0.4034   -0.9649    6.1463 C.ar      1 <0>         0.1806
     12 C9         -0.3661   -0.9741    7.2892 C.ar      1 <0>        -0.1898
     13 C10        -1.7429   -0.7751    7.2231 C.ar      1 <0>         0.1737
     14 C11        -2.3712   -0.5613    5.9992 C.ar      1 <0>        -0.0839
     15 C12        -3.8332   -0.3514    5.9408 C.ar      1 <0>        -0.0884
     16 C13        -4.3683    0.9546    6.0310 C.ar      1 <0>         0.0661
     17 C14        -3.5229    2.0662    6.1826 C.ar      1 <0>        -0.1800
     18 C15        -4.0439    3.3244    6.2692 C.ar      1 <0>         0.2015
     19 C16        -5.4449    3.5176    6.2012 C.ar      1 <0>        -0.2774
     20 C17        -6.3090    2.4313    6.0543 C.ar      1 <0>         0.2497
     21 C18        -5.7725    1.1338    5.9690 C.ar      1 <0>        -0.1547
     22 C19        -6.6147    0.0118    5.8227 C.ar      1 <0>         0.1797
     23 C20        -6.0703   -1.2511    5.7385 C.ar      1 <0>        -0.1906
     24 C21        -4.6911   -1.4376    5.7909 C.ar      1 <0>         0.1868
     25 O2         -4.1783   -2.6916    5.6993 O.3       1 <0>        -0.4877
     26 O3         -7.9608    0.1761    5.7654 O.3       1 <0>        -0.4764
     27 O4         -7.6476    2.6242    5.9951 O.3       1 <0>        -0.4608
     28 C22        -5.9794    4.8823    6.2831 C.2       1 <0>         0.4080
     29 O5         -7.1365    5.1313    6.0136 O.2       1 <0>        -0.4326
     30 C23        -5.0116    5.9664    6.7212 C.3       1 <0>        -0.1675
     31 H3         -5.3833    6.9431    6.4116 H         1 <0>         0.1162
     32 C24        -3.6670    5.6780    6.0380 C.3       1 <0>         0.0981
     33 H4         -2.9362    6.4273    6.3423 H         1 <0>         0.1323
     34 O6         -3.2092    4.3825    6.4233 O.3       1 <0>        -0.2987
     35 C25        -3.8454    5.7261    4.5192 C.3       1 <0>        -0.1902
     36 C26        -4.8435    5.9313    8.2416 C.3       1 <0>        -0.1393
     37 O7         -2.4797   -0.7894    8.3637 O.3       1 <0>        -0.4890
     38 O8          1.7439   -1.1604    6.2287 O.3       1 <0>        -0.4828
     39 C27         0.5654   -0.7404    3.7122 C.ar      1 <0>         0.2485
     40 C28        -0.0688   -0.5255    2.4875 C.ar      1 <0>        -0.2766
     41 C29         0.7110   -0.5182    1.2418 C.2       1 <0>         0.4051
     42 O9          1.8613   -0.9040    1.2049 O.2       1 <0>        -0.4311
     43 O10         1.9037   -0.9363    3.7653 O.3       1 <0>        -0.4684
     44 C30        -2.2044   -0.0382   -1.1800 C.3       1 <0>        -0.1485
     45 H5          1.0039    1.9031    0.0027 H         1 <0>         0.0654
     46 H6         -0.5459    1.8868   -0.8726 H         1 <0>         0.0769
     47 H7         -0.5289    1.8773    0.9072 H         1 <0>         0.0652
     48 H8         -3.2808   -0.1739    3.5117 H         1 <0>         0.1405
     49 H9          0.1040   -1.1381    8.2476 H         1 <0>         0.1445
     50 H10        -2.4534    1.9240    6.2312 H         1 <0>         0.1407
     51 H11        -6.7205   -2.1061    5.6272 H         1 <0>         0.1446
     52 H12        -4.0774   -3.1385    6.5509 H         1 <0>         0.4001
     53 H13        -8.3037    0.3029    4.8702 H         1 <0>         0.3944
     54 H14        -7.9863    2.7591    5.0995 H         1 <0>         0.4007
     55 H15        -4.1970    6.7153    4.2258 H         1 <0>         0.0805
     56 H16        -2.8908    5.5214    4.0345 H         1 <0>         0.0776
     57 H17        -4.5755    4.9761    4.2151 H         1 <0>         0.0604
     58 H18        -4.4535    4.9586    8.5416 H         1 <0>         0.0657
     59 H19        -4.1475    6.7121    8.5483 H         1 <0>         0.0751
     60 H20        -5.8096    6.0981    8.7179 H         1 <0>         0.0665
     61 H21        -2.5716    0.0769    8.7835 H         1 <0>         0.3984
     62 H22         2.2539   -0.3466    6.3418 H         1 <0>         0.4018
     63 H23         2.1688   -1.8633    3.6918 H         1 <0>         0.4085
     64 H24        -1.7110   -0.3802   -2.0898 H         1 <0>         0.0839
     65 H25        -3.2236   -0.4236   -1.1526 H         1 <0>         0.0733
     66 H26        -2.2275    1.0515   -1.1668 H         1 <0>         0.0743
@<TRIPOS>BOND
     1    1    2 1
     2    1   45 1
     3    1   46 1
     4    1   47 1
     5    2    3 1
     6    2   41 1
     7    2    4 1
     8    4    5 1
     9    4    6 1
    10    4   44 1
    11    6    7 1
    12    7   40 ar
    13    7    8 ar
    14    8    9 ar
    15    8   48 1
    16    9   14 ar
    17    9   10 ar
    18   10   11 ar
    19   10   39 ar
    20   11   12 ar
    21   11   38 1
    22   12   13 ar
    23   12   49 1
    24   13   14 ar
    25   13   37 1
    26   14   15 1
    27   15   24 ar
    28   15   16 ar
    29   16   21 ar
    30   16   17 ar
    31   17   18 ar
    32   17   50 1
    33   18   34 1
    34   18   19 ar
    35   19   20 ar
    36   19   28 1
    37   20   21 ar
    38   20   27 1
    39   21   22 ar
    40   22   23 ar
    41   22   26 1
    42   23   24 ar
    43   23   51 1
    44   24   25 1
    45   25   52 1
    46   26   53 1
    47   27   54 1
    48   28   29 2
    49   28   30 1
    50   30   31 1
    51   30   32 1
    52   30   36 1
    53   32   33 1
    54   32   34 1
    55   32   35 1
    56   35   55 1
    57   35   56 1
    58   35   57 1
    59   36   58 1
    60   36   59 1
    61   36   60 1
    62   37   61 1
    63   38   62 1
    64   39   40 ar
    65   39   43 1
    66   40   41 1
    67   41   42 2
    68   43   63 1
    69   44   64 1
    70   44   65 1
    71   44   66 1
@<TRIPOS>MOLECULE
ZINC05462669
   65    70     0     0     0
SMALL
USER_CHARGES

@<TRIPOS>ATOM
      1 C1         -0.0187    1.5258    0.0104 C.3       1 <0>        -0.1395
      2 C2          0.0021   -0.0041    0.0020 C.3       1 <0>        -0.1659
      3 H1          0.5110   -0.3633   -0.8924 H         1 <0>         0.1113
      4 C3         -1.4339   -0.5468    0.0401 C.3       1 <0>         0.0969
      5 H2         -1.4114   -1.6364    0.0277 H         1 <0>         0.0754
      6 O1         -2.0776   -0.0973    1.2318 O.3       1 <0>        -0.3000
      7 C4         -1.4674   -0.3156    2.4234 C.ar      1 <0>         0.1808
      8 C5         -2.2134   -0.3302    3.5662 C.ar      1 <0>        -0.1453
      9 C6         -1.6026   -0.5469    4.8122 C.ar      1 <0>         0.0624
     10 C7         -0.2027   -0.7522    4.8905 C.ar      1 <0>        -0.1487
     11 C8          0.4035   -0.9655    6.1463 C.ar      1 <0>         0.1551
     12 C9         -0.3660   -0.9747    7.2891 C.ar      1 <0>        -0.1788
     13 C10        -1.7428   -0.7757    7.2231 C.ar      1 <0>         0.1548
     14 C11        -2.3712   -0.5620    5.9992 C.ar      1 <0>        -0.0345
     15 C12        -3.8331   -0.3517    5.9410 C.ar      1 <0>        -0.1391
     16 C13        -4.3679    0.9543    6.0314 C.ar      1 <0>         0.1012
     17 C14        -3.5222    2.0658    6.1831 C.ar      1 <0>        -0.3116
     18 C15        -4.0428    3.3240    6.2699 C.ar      1 <0>         0.2541
     19 C16        -5.4439    3.5176    6.2019 C.ar      1 <0>        -0.4339
     20 C17        -6.3082    2.4317    6.0548 C.ar      1 <0>         0.3599
     21 C18        -5.7719    1.1339    5.9695 C.ar      1 <0>        -0.1984
     22 C19        -6.6145    0.0121    5.8238 C.ar      1 <0>         0.2115
     23 C20        -6.0705   -1.2510    5.7401 C.ar      1 <0>        -0.2505
     24 C21        -4.6913   -1.4378    5.7909 C.ar      1 <0>         0.1753
     25 O2         -4.1789   -2.6919    5.6995 O.3       1 <0>        -0.4982
     26 O3         -7.9605    0.1768    5.7666 O.3       1 <0>        -0.4756
     27 O4         -7.6466    2.6249    5.9953 O.3       1 <0>        -0.6109
     28 C22        -5.9780    4.8825    6.2840 C.2       1 <0>         0.4092
     29 O5         -7.1352    5.1317    6.0153 O.2       1 <0>        -0.4636
     30 C23        -5.0099    5.9661    6.7225 C.3       1 <0>        -0.1721
     31 H3         -5.3813    6.9431    6.4131 H         1 <0>         0.0935
     32 C24        -3.6653    5.6775    6.0392 C.3       1 <0>         0.1063
     33 H4         -2.9344    6.4267    6.3436 H         1 <0>         0.1106
     34 O6         -3.2078    4.3819    6.4241 O.3       1 <0>        -0.3178
     35 C25        -3.8437    5.7260    4.5204 C.3       1 <0>        -0.1862
     36 C26        -4.8418    5.9306    8.2428 C.3       1 <0>        -0.1302
     37 O7         -2.4796   -0.7905    8.3636 O.3       1 <0>        -0.4890
     38 O8          1.7439   -1.1619    6.2286 O.3       1 <0>        -0.4855
     39 C27         0.5654   -0.7411    3.7123 C.ar      1 <0>         0.2375
     40 C28        -0.0688   -0.5254    2.4876 C.ar      1 <0>        -0.2755
     41 C29         0.7110   -0.5182    1.2418 C.2       1 <0>         0.4082
     42 O9          1.8612   -0.9044    1.2048 O.2       1 <0>        -0.4404
     43 O10         1.9038   -0.9368    3.7653 O.3       1 <0>        -0.4697
     44 C30        -2.2045   -0.0381   -1.1799 C.3       1 <0>        -0.1479
     45 H5          1.0039    1.9031    0.0027 H         1 <0>         0.0628
     46 H6         -0.5459    1.8868   -0.8726 H         1 <0>         0.0753
     47 H7         -0.5289    1.8773    0.9072 H         1 <0>         0.0685
     48 H8         -3.2807   -0.1738    3.5120 H         1 <0>         0.1458
     49 H9          0.1041   -1.1386    8.2475 H         1 <0>         0.1381
     50 H10        -2.4527    1.9233    6.2316 H         1 <0>         0.1090
     51 H11        -6.7210   -2.1059    5.6292 H         1 <0>         0.1240
     52 H12        -4.0782   -3.1388    6.5512 H         1 <0>         0.3863
     53 H13        -8.3036    0.3033    4.8714 H         1 <0>         0.3891
     54 H14        -4.1951    6.7153    4.2272 H         1 <0>         0.0676
     55 H15        -2.8892    5.5211    4.0357 H         1 <0>         0.0656
     56 H16        -4.5740    4.9762    4.2162 H         1 <0>         0.0697
     57 H17        -4.4521    4.9578    8.5426 H         1 <0>         0.0650
     58 H18        -4.1456    6.7112    8.5497 H         1 <0>         0.0582
     59 H19        -5.8079    6.0976    8.7192 H         1 <0>         0.0576
     60 H20        -2.5715    0.0757    8.7837 H         1 <0>         0.3974
     61 H21         2.2544   -0.3484    6.3414 H         1 <0>         0.3949
     62 H22         2.1690   -1.8638    3.6919 H         1 <0>         0.4025
     63 H23        -1.7111   -0.3800   -2.0897 H         1 <0>         0.0799
     64 H24        -3.2237   -0.4235   -1.1525 H         1 <0>         0.0733
     65 H25        -2.2276    1.0516   -1.1667 H         1 <0>         0.0741
@<TRIPOS>BOND
     1    1    2 1
     2    1   45 1
     3    1   46 1
     4    1   47 1
     5    2    3 1
     6    2   41 1
     7    2    4 1
     8    4    5 1
     9    4    6 1
    10    4   44 1
    11    6    7 1
    12    7   40 ar
    13    7    8 ar
    14    8    9 ar
    15    8   48 1
    16    9   14 ar
    17    9   10 ar
    18   10   11 ar
    19   10   39 ar
    20   11   12 ar
    21   11   38 1
    22   12   13 ar
    23   12   49 1
    24   13   14 ar
    25   13   37 1
    26   14   15 1
    27   15   24 ar
    28   15   16 ar
    29   16   21 ar
    30   16   17 ar
    31   17   18 ar
    32   17   50 1
    33   18   34 1
    34   18   19 ar
    35   19   20 ar
    36   19   28 1
    37   20   21 ar
    38   20   27 1
    39   21   22 ar
    40   22   23 ar
    41   22   26 1
    42   23   24 ar
    43   23   51 1
    44   24   25 1
    45   25   52 1
    46   26   53 1
    47   28   29 2
    48   28   30 1
    49   30   31 1
    50   30   32 1
    51   30   36 1
    52   32   33 1
    53   32   34 1
    54   32   35 1
    55   35   54 1
    56   35   55 1
    57   35   56 1
    58   36   57 1
    59   36   58 1
    60   36   59 1
    61   37   60 1
    62   38   61 1
    63   39   40 ar
    64   39   43 1
    65   40   41 1
    66   41   42 2
    67   43   62 1
    68   44   63 1
    69   44   64 1
    70   44   65 1
@<TRIPOS>MOLECULE
ZINC05462670
   66    71     0     0     0
SMALL
USER_CHARGES
trihydroxy-dimethyl-(trihydroxy-dimethyl-oxo-BLAHyl)-BLAHone
@<TRIPOS>ATOM
      1 C1         -2.4593    1.1018   -0.4781 C.3       1 <0>        -0.1404
      2 C2         -1.3166    1.9895    0.0189 C.3       1 <0>        -0.1584
      3 H1         -1.5195    2.3064    0.9454 H         1 <0>         0.1065
      4 C3         -1.1409    3.1870   -0.9197 C.3       1 <0>         0.0979
      5 H2         -0.9389    2.8275   -1.9286 H         1 <0>         0.0794
      6 O1         -0.0474    3.9867   -0.4713 O.3       1 <0>        -0.3025
      7 C4          1.1504    3.3885   -0.2532 C.ar      1 <0>         0.1983
      8 C5          2.2892    4.1403   -0.2743 C.ar      1 <0>        -0.1674
      9 C6          3.5393    3.5454   -0.0375 C.ar      1 <0>         0.0704
     10 C7          3.6259    2.1553    0.2238 C.ar      1 <0>        -0.1532
     11 C8          4.8849    1.5663    0.4641 C.ar      1 <0>         0.1805
     12 C9          6.0232    2.3422    0.4419 C.ar      1 <0>        -0.1911
     13 C10         5.9493    3.7090    0.1848 C.ar      1 <0>         0.1718
     14 C11         4.7219    4.3207   -0.0555 C.ar      1 <0>        -0.0823
     15 C12         4.6553    5.7721   -0.3273 C.ar      1 <0>        -0.0854
     16 C13         4.7539    6.2525   -1.6537 C.ar      1 <0>         0.0711
     17 C14         4.9032    5.3610   -2.7292 C.ar      1 <0>        -0.1684
     18 C15         4.9909    5.8287   -4.0079 C.ar      1 <0>         0.1986
     19 C16         4.9300    7.2209   -4.2591 C.ar      1 <0>        -0.2765
     20 C17         4.7751    8.1293   -3.2109 C.ar      1 <0>         0.2482
     21 C18         4.6818    7.6471   -1.8925 C.ar      1 <0>        -0.1541
     22 C19         4.5249    8.5351   -0.8078 C.ar      1 <0>         0.1802
     23 C20         4.4370    8.0439    0.4764 C.ar      1 <0>        -0.1898
     24 C21         4.5007    6.6745    0.7217 C.ar      1 <0>         0.1738
     25 O2          4.4116    6.2149    1.9963 O.3       1 <0>        -0.4840
     26 O3          4.4601    9.8726   -1.0292 O.3       1 <0>        -0.4753
     27 O4          4.7150    9.4585   -3.4598 O.3       1 <0>        -0.4605
     28 C22         5.0351    7.6991   -5.6430 C.2       1 <0>         0.4036
     29 O5          5.2058    8.8729   -5.9009 O.2       1 <0>        -0.4309
     30 C23         4.9188    6.6514   -6.7351 C.3       1 <0>        -0.1565
     31 H3          5.3085    7.0096   -7.5835 H         1 <0>         0.1042
     32 C24         5.6912    5.4123   -6.2598 C.3       1 <0>         0.0971
     33 H4          6.7386    5.6727   -6.1076 H         1 <0>         0.0795
     34 O6          5.1317    4.9494   -5.0312 O.3       1 <0>        -0.3007
     35 C25         5.5873    4.3098   -7.3155 C.3       1 <0>        -0.1491
     36 C26         3.4482    6.2942   -6.9600 C.3       1 <0>        -0.1421
     37 O7          7.0856    4.4523    0.1679 O.3       1 <0>        -0.4858
     38 O8          4.9750    0.2358    0.7166 O.3       1 <0>        -0.4763
     39 C27         2.4526    1.3799    0.2407 C.ar      1 <0>         0.2475
     40 C28         1.2240    1.9978    0.0011 C.ar      1 <0>        -0.2770
     41 C29        -0.0144    1.2097    0.0087 C.2       1 <0>         0.4030
     42 O9          0.0021   -0.0041    0.0020 O.2       1 <0>        -0.4275
     43 O10         2.5140    0.0502    0.4867 O.3       1 <0>        -0.4603
     44 C30        -2.4198    4.0268   -0.9235 C.3       1 <0>        -0.1491
     45 H5         -2.5552    0.2338    0.1741 H         1 <0>         0.0730
     46 H6         -3.3904    1.6685   -0.4679 H         1 <0>         0.0726
     47 H7         -2.2466    0.7708   -1.4946 H         1 <0>         0.0627
     48 H8          2.2287    5.2000   -0.4741 H         1 <0>         0.1421
     49 H9          6.9842    1.8852    0.6263 H         1 <0>         0.1444
     50 H10         4.9541    4.2985   -2.5420 H         1 <0>         0.1412
     51 H11         4.3175    8.7290    1.3027 H         1 <0>         0.1450
     52 H12         5.2637    6.1375    2.4469 H         1 <0>         0.3935
     53 H13         5.3192   10.3162   -1.0118 H         1 <0>         0.3940
     54 H14         5.5753    9.8998   -3.4499 H         1 <0>         0.4003
     55 H15         6.0124    4.6646   -8.2544 H         1 <0>         0.0840
     56 H16         6.1356    3.4304   -6.9777 H         1 <0>         0.0739
     57 H17         4.5398    4.0489   -7.4666 H         1 <0>         0.0748
     58 H18         2.8990    7.1871   -7.2586 H         1 <0>         0.0662
     59 H19         3.3730    5.5418   -7.7451 H         1 <0>         0.0777
     60 H20         3.0249    5.8992   -6.0365 H         1 <0>         0.0665
     61 H21         7.3242    4.8255    1.0275 H         1 <0>         0.3934
     62 H22         5.0922   -0.3077   -0.0746 H         1 <0>         0.3946
     63 H23         2.6220   -0.4920   -0.3066 H         1 <0>         0.4003
     64 H24        -2.2936    4.8777   -1.5929 H         1 <0>         0.0744
     65 H25        -3.2548    3.4157   -1.2660 H         1 <0>         0.0869
     66 H26        -2.6220    4.3854    0.0858 H         1 <0>         0.0718
@<TRIPOS>BOND
     1    1    2 1
     2    1   45 1
     3    1   46 1
     4    1   47 1
     5    2    3 1
     6    2   41 1
     7    2    4 1
     8    4    5 1
     9    4    6 1
    10    4   44 1
    11    6    7 1
    12    7   40 ar
    13    7    8 ar
    14    8    9 ar
    15    8   48 1
    16    9   14 ar
    17    9   10 ar
    18   10   11 ar
    19   10   39 ar
    20   11   12 ar
    21   11   38 1
    22   12   13 ar
    23   12   49 1
    24   13   14 ar
    25   13   37 1
    26   14   15 1
    27   15   24 ar
    28   15   16 ar
    29   16   21 ar
    30   16   17 ar
    31   17   18 ar
    32   17   50 1
    33   18   34 1
    34   18   19 ar
    35   19   20 ar
    36   19   28 1
    37   20   21 ar
    38   20   27 1
    39   21   22 ar
    40   22   23 ar
    41   22   26 1
    42   23   24 ar
    43   23   51 1
    44   24   25 1
    45   25   52 1
    46   26   53 1
    47   27   54 1
    48   28   29 2
    49   28   30 1
    50   30   31 1
    51   30   32 1
    52   30   36 1
    53   32   33 1
    54   32   34 1
    55   32   35 1
    56   35   55 1
    57   35   56 1
    58   35   57 1
    59   36   58 1
    60   36   59 1
    61   36   60 1
    62   37   61 1
    63   38   62 1
    64   39   40 ar
    65   39   43 1
    66   40   41 1
    67   41   42 2
    68   43   63 1
    69   44   64 1
    70   44   65 1
    71   44   66 1
@<TRIPOS>MOLECULE
ZINC05462674
   66    71     0     0     0
SMALL
USER_CHARGES

@<TRIPOS>ATOM
      1 C1         -0.0187    1.5258    0.0104 C.3       1 <0>        -0.1394
      2 C2          0.0021   -0.0041    0.0020 C.3       1 <0>        -0.1668
      3 H1          0.5110   -0.3633   -0.8924 H         1 <0>         0.1157
      4 C3         -1.4339   -0.5467    0.0401 C.3       1 <0>         0.0969
      5 H2         -1.4114   -1.6364    0.0278 H         1 <0>         0.0789
      6 O1         -2.0776   -0.0972    1.2317 O.3       1 <0>        -0.3016
      7 C4         -1.4675   -0.3155    2.4234 C.ar      1 <0>         0.1982
      8 C5         -2.2135   -0.3300    3.5660 C.ar      1 <0>        -0.1685
      9 C6         -1.6025   -0.5462    4.8122 C.ar      1 <0>         0.0709
     10 C7         -0.2028   -0.7516    4.8906 C.ar      1 <0>        -0.1550
     11 C8          0.4034   -0.9649    6.1463 C.ar      1 <0>         0.1807
     12 C9         -0.3661   -0.9741    7.2892 C.ar      1 <0>        -0.1899
     13 C10        -1.7429   -0.7751    7.2231 C.ar      1 <0>         0.1737
     14 C11        -2.3712   -0.5613    5.9992 C.ar      1 <0>        -0.0839
     15 C12        -3.8332   -0.3514    5.9408 C.ar      1 <0>        -0.0886
     16 C13        -4.3683    0.9546    6.0310 C.ar      1 <0>         0.0665
     17 C14        -3.5229    2.0662    6.1826 C.ar      1 <0>        -0.1797
     18 C15        -4.0439    3.3244    6.2692 C.ar      1 <0>         0.2018
     19 C16        -5.4449    3.5176    6.2012 C.ar      1 <0>        -0.2792
     20 C17        -6.3090    2.4313    6.0543 C.ar      1 <0>         0.2516
     21 C18        -5.7725    1.1338    5.9690 C.ar      1 <0>        -0.1550
     22 C19        -6.6147    0.0118    5.8227 C.ar      1 <0>         0.1800
     23 C20        -6.0703   -1.2511    5.7385 C.ar      1 <0>        -0.1907
     24 C21        -4.6911   -1.4376    5.7909 C.ar      1 <0>         0.1872
     25 O2         -4.1783   -2.6916    5.6993 O.3       1 <0>        -0.4877
     26 O3         -7.9608    0.1761    5.7654 O.3       1 <0>        -0.4764
     27 O4         -7.6476    2.6242    5.9951 O.3       1 <0>        -0.4609
     28 C22        -5.9794    4.8823    6.2831 C.2       1 <0>         0.4048
     29 O5         -7.1367    5.1311    6.0144 O.2       1 <0>        -0.4315
     30 C23        -5.0116    5.9664    6.7212 C.3       1 <0>        -0.1665
     31 H3         -5.3833    6.9431    6.4116 H         1 <0>         0.1159
     32 C24        -3.6670    5.6780    6.0380 C.3       1 <0>         0.0975
     33 H4         -3.7942    5.7118    4.9560 H         1 <0>         0.0789
     34 O6         -3.2092    4.3825    6.4233 O.3       1 <0>        -0.3015
     35 C25        -2.6414    6.7302    6.4646 C.3       1 <0>        -0.1489
     36 C26        -4.8435    5.9313    8.2416 C.3       1 <0>        -0.1396
     37 O7         -2.4797   -0.7894    8.3637 O.3       1 <0>        -0.4890
     38 O8          1.7439   -1.1604    6.2287 O.3       1 <0>        -0.4828
     39 C27         0.5654   -0.7404    3.7122 C.ar      1 <0>         0.2485
     40 C28        -0.0688   -0.5255    2.4875 C.ar      1 <0>        -0.2766
     41 C29         0.7110   -0.5182    1.2418 C.2       1 <0>         0.4051
     42 O9          1.8613   -0.9040    1.2049 O.2       1 <0>        -0.4311
     43 O10         1.9037   -0.9363    3.7653 O.3       1 <0>        -0.4684
     44 C30        -2.2044   -0.0382   -1.1800 C.3       1 <0>        -0.1485
     45 H5          1.0039    1.9031    0.0027 H         1 <0>         0.0655
     46 H6         -0.5459    1.8868   -0.8726 H         1 <0>         0.0770
     47 H7         -0.5289    1.8773    0.9072 H         1 <0>         0.0652
     48 H8         -3.2808   -0.1739    3.5117 H         1 <0>         0.1406
     49 H9          0.1040   -1.1381    8.2476 H         1 <0>         0.1445
     50 H10        -2.4534    1.9240    6.2312 H         1 <0>         0.1409
     51 H11        -6.7205   -2.1061    5.6272 H         1 <0>         0.1447
     52 H12        -4.0774   -3.1385    6.5509 H         1 <0>         0.4002
     53 H13        -8.3037    0.3029    4.8702 H         1 <0>         0.3946
     54 H14        -7.9863    2.7591    5.0995 H         1 <0>         0.4011
     55 H15        -2.5138    6.6954    7.5466 H         1 <0>         0.0747
     56 H16        -1.6871    6.5251    5.9795 H         1 <0>         0.0734
     57 H17        -2.9927    7.7196    6.1718 H         1 <0>         0.0841
     58 H18        -4.4535    4.9586    8.5416 H         1 <0>         0.0654
     59 H19        -4.1475    6.7121    8.5483 H         1 <0>         0.0772
     60 H20        -5.8096    6.0981    8.7179 H         1 <0>         0.0658
     61 H21        -2.5716    0.0769    8.7835 H         1 <0>         0.3983
     62 H22         2.2539   -0.3466    6.3418 H         1 <0>         0.4018
     63 H23         2.1688   -1.8633    3.6918 H         1 <0>         0.4085
     64 H24        -1.7110   -0.3802   -2.0898 H         1 <0>         0.0839
     65 H25        -3.2236   -0.4236   -1.1526 H         1 <0>         0.0733
     66 H26        -2.2275    1.0515   -1.1668 H         1 <0>         0.0743
@<TRIPOS>BOND
     1    1    2 1
     2    1   45 1
     3    1   46 1
     4    1   47 1
     5    2    3 1
     6    2   41 1
     7    2    4 1
     8    4    5 1
     9    4    6 1
    10    4   44 1
    11    6    7 1
    12    7   40 ar
    13    7    8 ar
    14    8    9 ar
    15    8   48 1
    16    9   14 ar
    17    9   10 ar
    18   10   11 ar
    19   10   39 ar
    20   11   12 ar
    21   11   38 1
    22   12   13 ar
    23   12   49 1
    24   13   14 ar
    25   13   37 1
    26   14   15 1
    27   15   24 ar
    28   15   16 ar
    29   16   21 ar
    30   16   17 ar
    31   17   18 ar
    32   17   50 1
    33   18   34 1
    34   18   19 ar
    35   19   20 ar
    36   19   28 1
    37   20   21 ar
    38   20   27 1
    39   21   22 ar
    40   22   23 ar
    41   22   26 1
    42   23   24 ar
    43   23   51 1
    44   24   25 1
    45   25   52 1
    46   26   53 1
    47   27   54 1
    48   28   29 2
    49   28   30 1
    50   30   31 1
    51   30   32 1
    52   30   36 1
    53   32   33 1
    54   32   34 1
    55   32   35 1
    56   35   55 1
    57   35   56 1
    58   35   57 1
    59   36   58 1
    60   36   59 1
    61   36   60 1
    62   37   61 1
    63   38   62 1
    64   39   40 ar
    65   39   43 1
    66   40   41 1
    67   41   42 2
    68   43   63 1
    69   44   64 1
    70   44   65 1
    71   44   66 1
@<TRIPOS>MOLECULE
ZINC05462674
   65    70     0     0     0
SMALL
USER_CHARGES

@<TRIPOS>ATOM
      1 C1         -0.0187    1.5258    0.0104 C.3       1 <0>        -0.1396
      2 C2          0.0021   -0.0041    0.0020 C.3       1 <0>        -0.1659
      3 H1          0.5110   -0.3633   -0.8924 H         1 <0>         0.1113
      4 C3         -1.4339   -0.5468    0.0401 C.3       1 <0>         0.0969
      5 H2         -1.4114   -1.6364    0.0277 H         1 <0>         0.0755
      6 O1         -2.0776   -0.0973    1.2318 O.3       1 <0>        -0.3000
      7 C4         -1.4674   -0.3156    2.4234 C.ar      1 <0>         0.1808
      8 C5         -2.2134   -0.3302    3.5662 C.ar      1 <0>        -0.1454
      9 C6         -1.6026   -0.5469    4.8122 C.ar      1 <0>         0.0623
     10 C7         -0.2027   -0.7522    4.8905 C.ar      1 <0>        -0.1487
     11 C8          0.4035   -0.9655    6.1463 C.ar      1 <0>         0.1551
     12 C9         -0.3660   -0.9747    7.2891 C.ar      1 <0>        -0.1787
     13 C10        -1.7428   -0.7757    7.2231 C.ar      1 <0>         0.1548
     14 C11        -2.3712   -0.5620    5.9992 C.ar      1 <0>        -0.0345
     15 C12        -3.8331   -0.3517    5.9410 C.ar      1 <0>        -0.1392
     16 C13        -4.3679    0.9543    6.0314 C.ar      1 <0>         0.1015
     17 C14        -3.5222    2.0658    6.1831 C.ar      1 <0>        -0.3111
     18 C15        -4.0428    3.3240    6.2699 C.ar      1 <0>         0.2537
     19 C16        -5.4439    3.5176    6.2019 C.ar      1 <0>        -0.4354
     20 C17        -6.3082    2.4317    6.0548 C.ar      1 <0>         0.3608
     21 C18        -5.7719    1.1339    5.9695 C.ar      1 <0>        -0.1984
     22 C19        -6.6145    0.0121    5.8238 C.ar      1 <0>         0.2118
     23 C20        -6.0705   -1.2510    5.7401 C.ar      1 <0>        -0.2504
     24 C21        -4.6913   -1.4378    5.7909 C.ar      1 <0>         0.1757
     25 O2         -4.1789   -2.6919    5.6995 O.3       1 <0>        -0.4981
     26 O3         -7.9605    0.1768    5.7666 O.3       1 <0>        -0.4756
     27 O4         -7.6466    2.6249    5.9953 O.3       1 <0>        -0.6103
     28 C22        -5.9780    4.8825    6.2840 C.2       1 <0>         0.4047
     29 O5         -7.1352    5.1317    6.0153 O.2       1 <0>        -0.4627
     30 C23        -5.0099    5.9661    6.7225 C.3       1 <0>        -0.1694
     31 H3         -5.3813    6.9431    6.4131 H         1 <0>         0.0933
     32 C24        -3.6653    5.6775    6.0392 C.3       1 <0>         0.1033
     33 H4         -3.7925    5.7116    4.9571 H         1 <0>         0.0668
     34 O6         -3.2078    4.3819    6.4241 O.3       1 <0>        -0.3194
     35 C25        -2.6396    6.7294    6.4660 C.3       1 <0>        -0.1443
     36 C26        -4.8418    5.9306    8.2428 C.3       1 <0>        -0.1303
     37 O7         -2.4796   -0.7905    8.3636 O.3       1 <0>        -0.4890
     38 O8          1.7439   -1.1619    6.2286 O.3       1 <0>        -0.4854
     39 C27         0.5654   -0.7411    3.7123 C.ar      1 <0>         0.2375
     40 C28        -0.0688   -0.5254    2.4876 C.ar      1 <0>        -0.2754
     41 C29         0.7110   -0.5182    1.2418 C.2       1 <0>         0.4082
     42 O9          1.8612   -0.9044    1.2048 O.2       1 <0>        -0.4404
     43 O10         1.9038   -0.9368    3.7653 O.3       1 <0>        -0.4696
     44 C30        -2.2045   -0.0381   -1.1799 C.3       1 <0>        -0.1479
     45 H5          1.0039    1.9031    0.0027 H         1 <0>         0.0628
     46 H6         -0.5459    1.8868   -0.8726 H         1 <0>         0.0753
     47 H7         -0.5289    1.8773    0.9072 H         1 <0>         0.0685
     48 H8         -3.2807   -0.1738    3.5120 H         1 <0>         0.1459
     49 H9          0.1041   -1.1386    8.2475 H         1 <0>         0.1381
     50 H10        -2.4527    1.9233    6.2316 H         1 <0>         0.1094
     51 H11        -6.7210   -2.1059    5.6292 H         1 <0>         0.1242
     52 H12        -4.0782   -3.1388    6.5512 H         1 <0>         0.3864
     53 H13        -8.3036    0.3033    4.8714 H         1 <0>         0.3893
     54 H14        -2.5120    6.6944    7.5479 H         1 <0>         0.0687
     55 H15        -1.6853    6.5242    5.9808 H         1 <0>         0.0644
     56 H16        -2.9906    7.7190    6.1734 H         1 <0>         0.0739
     57 H17        -4.4521    4.9578    8.5426 H         1 <0>         0.0645
     58 H18        -4.1456    6.7112    8.5497 H         1 <0>         0.0607
     59 H19        -5.8079    6.0976    8.7192 H         1 <0>         0.0568
     60 H20        -2.5715    0.0757    8.7837 H         1 <0>         0.3974
     61 H21         2.2544   -0.3484    6.3414 H         1 <0>         0.3949
     62 H22         2.1690   -1.8638    3.6919 H         1 <0>         0.4025
     63 H23        -1.7111   -0.3800   -2.0897 H         1 <0>         0.0799
     64 H24        -3.2237   -0.4235   -1.1525 H         1 <0>         0.0733
     65 H25        -2.2276    1.0516   -1.1667 H         1 <0>         0.0742
@<TRIPOS>BOND
     1    1    2 1
     2    1   45 1
     3    1   46 1
     4    1   47 1
     5    2    3 1
     6    2   41 1
     7    2    4 1
     8    4    5 1
     9    4    6 1
    10    4   44 1
    11    6    7 1
    12    7   40 ar
    13    7    8 ar
    14    8    9 ar
    15    8   48 1
    16    9   14 ar
    17    9   10 ar
    18   10   11 ar
    19   10   39 ar
    20   11   12 ar
    21   11   38 1
    22   12   13 ar
    23   12   49 1
    24   13   14 ar
    25   13   37 1
    26   14   15 1
    27   15   24 ar
    28   15   16 ar
    29   16   21 ar
    30   16   17 ar
    31   17   18 ar
    32   17   50 1
    33   18   34 1
    34   18   19 ar
    35   19   20 ar
    36   19   28 1
    37   20   21 ar
    38   20   27 1
    39   21   22 ar
    40   22   23 ar
    41   22   26 1
    42   23   24 ar
    43   23   51 1
    44   24   25 1
    45   25   52 1
    46   26   53 1
    47   28   29 2
    48   28   30 1
    49   30   31 1
    50   30   32 1
    51   30   36 1
    52   32   33 1
    53   32   34 1
    54   32   35 1
    55   35   54 1
    56   35   55 1
    57   35   56 1
    58   36   57 1
    59   36   58 1
    60   36   59 1
    61   37   60 1
    62   38   61 1
    63   39   40 ar
    64   39   43 1
    65   40   41 1
    66   41   42 2
    67   43   62 1
    68   44   63 1
    69   44   64 1
    70   44   65 1
@<TRIPOS>MOLECULE
ZINC03874317
   33    35     0     0     0
SMALL
USER_CHARGES

@<TRIPOS>ATOM
      1 C1          2.0732    1.4062   -0.8308 C.ar      1 <0>        -0.0859
      2 C2          1.1849    2.0922    0.0020 C.ar      1 <0>        -0.0258
      3 C3          0.3126    1.3779    0.8279 C.ar      1 <0>        -0.1033
      4 C4          0.3308   -0.0046    0.8189 C.ar      1 <0>         0.0938
      5 C5          1.2167   -0.6850   -0.0116 C.ar      1 <0>         0.0764
      6 C6          2.0867    0.0236   -0.8354 C.ar      1 <0>         0.0966
      7 O1          2.9505   -0.6446   -1.6458 O.3       1 <0>        -0.4863
      8 O2          1.2322   -2.0446   -0.0183 O.3       1 <0>        -0.4787
      9 O3         -0.5174   -0.7003    1.6227 O.3       1 <0>        -0.4812
     10 C7          1.1683    3.5667    0.0096 C.2       1 <0>         0.1312
     11 C8          2.3519    4.2356    0.1004 C.2       1 <0>        -0.0374
     12 C9          2.3527    5.6546    0.1089 C.2       1 <0>         0.4012
     13 O4          3.3933    6.2877    0.1887 O.2       1 <0>        -0.4464
     14 C10         1.0501    6.3331    0.0174 C.ar      1 <0>        -0.2690
     15 C11         0.9572    7.7312    0.0184 C.ar      1 <0>         0.2250
     16 C12        -0.2849    8.3310   -0.0697 C.ar      1 <0>        -0.2079
     17 C13        -1.4331    7.5508   -0.1581 C.ar      1 <0>         0.2004
     18 C14        -1.3490    6.1675   -0.1597 C.ar      1 <0>        -0.1855
     19 C15        -0.1119    5.5470   -0.0726 C.ar      1 <0>         0.1879
     20 O5         -0.0133    4.2011   -0.0789 O.3       1 <0>        -0.1974
     21 O6         -2.6481    8.1504   -0.2432 O.3       1 <0>        -0.4866
     22 O7          2.0786    8.4907    0.1056 O.3       1 <0>        -0.4725
     23 O8          3.5237    3.5485    0.1828 O.3       1 <0>        -0.4491
     24 H1          2.7453    1.9555   -1.4734 H         1 <0>         0.1463
     25 H2         -0.3747    1.9053    1.4728 H         1 <0>         0.1442
     26 H3          3.8063   -0.8341   -1.2374 H         1 <0>         0.3987
     27 H4          0.6310   -2.4417   -0.6632 H         1 <0>         0.3936
     28 H5         -1.3687   -0.9054    1.2124 H         1 <0>         0.3924
     29 H6         -0.3642    9.4081   -0.0694 H         1 <0>         0.1517
     30 H7         -2.2476    5.5724   -0.2288 H         1 <0>         0.1557
     31 H8         -2.9359    8.3293   -1.1489 H         1 <0>         0.4053
     32 H9          2.4687    8.7158   -0.7501 H         1 <0>         0.4040
     33 H10         4.3069    4.1124    0.2436 H         1 <0>         0.4089
@<TRIPOS>BOND
     1    1    6 ar
     2    1    2 ar
     3    1   24 1
     4    2    3 ar
     5    2   10 1
     6    3    4 ar
     7    3   25 1
     8    4    5 ar
     9    4    9 1
    10    5    6 ar
    11    5    8 1
    12    6    7 1
    13    7   26 1
    14    8   27 1
    15    9   28 1
    16   10   20 1
    17   10   11 2
    18   11   12 1
    19   11   23 1
    20   12   13 2
    21   12   14 1
    22   14   19 ar
    23   14   15 ar
    24   15   16 ar
    25   15   22 1
    26   16   17 ar
    27   16   29 1
    28   17   18 ar
    29   17   21 1
    30   18   19 ar
    31   18   30 1
    32   19   20 1
    33   21   31 1
    34   22   32 1
    35   23   33 1
@<TRIPOS>MOLECULE
ZINC03874317
   32    34     0     0     0
SMALL
USER_CHARGES

@<TRIPOS>ATOM
      1 C1          2.0771    1.4053   -0.8287 C.ar      1 <0>        -0.0905
      2 C2          1.1858    2.0921    0.0020 C.ar      1 <0>        -0.0015
      3 C3          0.3103    1.3773    0.8258 C.ar      1 <0>        -0.1070
      4 C4          0.3284   -0.0047    0.8166 C.ar      1 <0>         0.0918
      5 C5          1.2173   -0.6854   -0.0113 C.ar      1 <0>         0.0627
      6 C6          2.0900    0.0232   -0.8331 C.ar      1 <0>         0.0937
      7 O1          2.9560   -0.6454   -1.6409 O.3       1 <0>        -0.4882
      8 O2          1.2332   -2.0446   -0.0173 O.3       1 <0>        -0.4810
      9 O3         -0.5225   -0.7004    1.6174 O.3       1 <0>        -0.4835
     10 C7          1.1696    3.5647    0.0095 C.2       1 <0>         0.0969
     11 C8          2.3645    4.2546    0.1013 C.2       1 <0>         0.0017
     12 C9          2.3581    5.6552    0.1091 C.2       1 <0>         0.3347
     13 C10         1.1162    6.3213    0.0219 C.2       1 <0>        -0.3328
     14 C11         1.0516    7.7306    0.0250 C.2       1 <0>         0.2668
     15 C12        -0.1591    8.3550   -0.0605 C.2       1 <0>        -0.3747
     16 C13        -1.3400    7.6005   -0.1516 C.2       1 <0>         0.3649
     17 O4         -2.5185    8.2209   -0.2352 O.2       1 <0>        -0.6597
     18 C14        -1.2886    6.2026   -0.1556 C.2       1 <0>        -0.3140
     19 C15        -0.0694    5.5584   -0.0695 C.2       1 <0>         0.2123
     20 O5         -0.0059    4.2104   -0.0783 O.3       1 <0>        -0.2019
     21 O6          2.1901    8.4635    0.1132 O.3       1 <0>        -0.4481
     22 O7          3.5130    6.3524    0.1984 O.3       1 <0>        -0.5726
     23 O8          3.5409    3.5760    0.1840 O.3       1 <0>        -0.4646
     24 H1          2.7513    1.9542   -1.4694 H         1 <0>         0.1458
     25 H2         -0.3788    1.9047    1.4687 H         1 <0>         0.1447
     26 H3          3.8105   -0.8352   -1.2299 H         1 <0>         0.3943
     27 H4          0.6340   -2.4421   -0.6639 H         1 <0>         0.3880
     28 H5         -1.3725   -0.9053    1.2042 H         1 <0>         0.3891
     29 H6         -0.2092    9.4338   -0.0579 H         1 <0>         0.1182
     30 H7         -2.2003    5.6280   -0.2254 H         1 <0>         0.1230
     31 H8          2.0440    9.4194    0.1078 H         1 <0>         0.3850
     32 H9          4.3201    4.1455    0.2445 H         1 <0>         0.4068
@<TRIPOS>BOND
     1    1    6 ar
     2    1    2 ar
     3    1   24 1
     4    2    3 ar
     5    2   10 1
     6    3    4 ar
     7    3   25 1
     8    4    5 ar
     9    4    9 1
    10    5    6 ar
    11    5    8 1
    12    6    7 1
    13    7   26 1
    14    8   27 1
    15    9   28 1
    16   10   20 1
    17   10   11 2
    18   11   12 1
    19   11   23 1
    20   12   13 2
    21   12   22 1
    22   13   19 1
    23   13   14 1
    24   14   15 2
    25   14   21 1
    26   15   16 1
    27   15   29 1
    28   16   17 2
    29   16   18 1
    30   18   19 2
    31   18   30 1
    32   19   20 1
    33   21   31 1
    34   23   32 1
@<TRIPOS>MOLECULE
ZINC04098600
   32    34     0     0     0
SMALL
USER_CHARGES

@<TRIPOS>ATOM
      1 C1          0.0035    1.4143    0.3090 C.ar      1 <0>        -0.1753
      2 C2          1.1546    2.0982    0.0380 C.ar      1 <0>        -0.0066
      3 C3          2.3728    1.4186    0.0060 C.ar      1 <0>        -0.2364
      4 C4          2.4188    0.0351    0.2513 C.ar      1 <0>         0.1715
      5 C5          1.2411   -0.6453    0.5256 C.ar      1 <0>        -0.1742
      6 C6          0.0397    0.0435    0.5533 C.ar      1 <0>         0.1827
      7 O1         -1.1122   -0.6230    0.8218 O.3       1 <0>        -0.4901
      8 O2          3.6005   -0.6147    0.2177 O.3       1 <0>        -0.1992
      9 C7          4.7589    0.0138   -0.0453 C.2       1 <0>         0.1338
     10 C8          4.8242    1.3523   -0.2962 C.2       1 <0>        -0.0396
     11 C9          3.6345    2.1235   -0.2835 C.2       1 <0>         0.4005
     12 O3          3.6543    3.3238   -0.5035 O.2       1 <0>        -0.4599
     13 O4          6.0219    1.9435   -0.5570 O.3       1 <0>        -0.4480
     14 C10         6.0055   -0.7732   -0.0625 C.ar      1 <0>        -0.0250
     15 C11         7.1319   -0.3160    0.6273 C.ar      1 <0>        -0.0860
     16 C12         8.2993   -1.0565    0.6097 C.ar      1 <0>         0.0962
     17 C13         8.3537   -2.2563   -0.0941 C.ar      1 <0>         0.0757
     18 C14         7.2335   -2.7143   -0.7820 C.ar      1 <0>         0.0946
     19 C15         6.0616   -1.9809   -0.7638 C.ar      1 <0>        -0.1045
     20 O5          7.2905   -3.8868   -1.4688 O.3       1 <0>        -0.4806
     21 O6          9.5033   -2.9822   -0.1099 O.3       1 <0>        -0.4736
     22 O7          9.3959   -0.6120    1.2802 O.3       1 <0>        -0.4791
     23 H1         -0.9393    1.9402    0.3384 H         1 <0>         0.1456
     24 H2          1.1218    3.1610   -0.1511 H         1 <0>         0.1493
     25 H3          1.2610   -1.7082    0.7157 H         1 <0>         0.1532
     26 H4         -1.5562   -0.9727    0.0372 H         1 <0>         0.4040
     27 H5          5.9634    2.8945   -0.7218 H         1 <0>         0.4090
     28 H6          7.0905    0.6150    1.1732 H         1 <0>         0.1468
     29 H7          5.1915   -2.3390   -1.2940 H         1 <0>         0.1440
     30 H8          7.0420   -4.6614   -0.9460 H         1 <0>         0.3916
     31 H9          9.5710   -3.6274    0.6071 H         1 <0>         0.3882
     32 H10         9.4480   -0.9185    2.1959 H         1 <0>         0.3914
@<TRIPOS>BOND
     1    1    6 ar
     2    1    2 ar
     3    1   23 1
     4    2    3 ar
     5    2   24 1
     6    3   11 1
     7    3    4 ar
     8    4    5 ar
     9    4    8 1
    10    5    6 ar
    11    5   25 1
    12    6    7 1
    13    7   26 1
    14    8    9 1
    15    9   10 2
    16    9   14 1
    17   10   11 1
    18   10   13 1
    19   11   12 2
    20   13   27 1
    21   14   19 ar
    22   14   15 ar
    23   15   16 ar
    24   15   28 1
    25   16   17 ar
    26   16   22 1
    27   17   18 ar
    28   17   21 1
    29   18   19 ar
    30   18   20 1
    31   19   29 1
    32   20   30 1
    33   21   31 1
    34   22   32 1
@<TRIPOS>MOLECULE
ZINC08648345
   51    52     0     0     0
SMALL
USER_CHARGES

@<TRIPOS>ATOM
      1 C1         -0.0187    1.5258    0.0104 C.3       1 <0>        -0.1502
      2 C2          0.0021   -0.0041    0.0020 C.3       1 <0>         0.0598
      3 O1         -1.3386   -0.4987    0.0122 O.3       1 <0>        -0.3285
      4 C3         -1.4971   -1.8379    0.0065 C.2       1 <0>         0.5382
      5 O2         -0.5228   -2.5654   -0.0067 O.2       1 <0>        -0.5236
      6 C4         -2.8445   -2.4168    0.0162 C.2       1 <0>        -0.3682
      7 C5         -3.0280   -3.8009    0.0164 C.2       1 <0>         0.2974
      8 N1         -4.2540   -4.3008    0.0252 N.2       1 <0>        -0.5903
      9 C6         -5.3201   -3.5197    0.0340 C.2       1 <0>         0.6595
     10 N2         -5.2135   -2.1649    0.0345 N.am      1 <0>        -0.6526
     11 C7         -3.9956   -1.5820    0.0317 C.2       1 <0>         0.5590
     12 O3         -3.8854   -0.3688    0.0376 O.2       1 <0>        -0.4962
     13 N3         -6.5604   -4.0886    0.0425 N.pl3     1 <0>        -0.6891
     14 C8         -6.6973   -5.5472    0.0417 C.3       1 <0>         0.1343
     15 C9         -8.1811   -5.9202    0.0522 C.3       1 <0>        -0.1541
     16 C10        -8.3240   -7.4435    0.0514 C.3       1 <0>         0.1343
     17 N4         -9.7448   -7.8006    0.0614 N.pl3     1 <0>        -0.6891
     18 C11       -10.1184   -9.1130    0.0625 C.2       1 <0>         0.6595
     19 N5         -9.1843  -10.0480    0.0600 N.2       1 <0>        -0.5904
     20 C12        -9.4918  -11.3358    0.0614 C.2       1 <0>         0.2975
     21 C13       -10.8320  -11.7277    0.0656 C.2       1 <0>        -0.3682
     22 C14       -11.8321  -10.7168    0.0684 C.2       1 <0>         0.5589
     23 N6        -11.4413   -9.4244    0.0719 N.am      1 <0>        -0.6526
     24 O4        -13.0145  -11.0102    0.0717 O.2       1 <0>        -0.4963
     25 C15       -11.1992  -13.1475    0.0668 C.2       1 <0>         0.5383
     26 O5        -10.3319  -13.9998    0.0640 O.2       1 <0>        -0.5236
     27 O6        -12.4987  -13.5078    0.0709 O.3       1 <0>        -0.3286
     28 C16       -12.7837  -14.9081    0.0718 C.3       1 <0>         0.0598
     29 C17       -14.2989  -15.1202    0.0766 C.3       1 <0>        -0.1502
     30 H1          1.0039    1.9031    0.0027 H         1 <0>         0.0778
     31 H2         -0.5459    1.8868   -0.8726 H         1 <0>         0.0658
     32 H3         -0.5289    1.8773    0.9072 H         1 <0>         0.0658
     33 H4          0.5123   -0.3556   -0.8948 H         1 <0>         0.0657
     34 H5          0.5293   -0.3651    0.8851 H         1 <0>         0.0657
     35 H6         -2.1733   -4.4612    0.0089 H         1 <0>         0.1876
     36 H7         -7.3514   -3.5272    0.0490 H         1 <0>         0.4172
     37 H8         -6.2262   -5.9558   -0.8523 H         1 <0>         0.0914
     38 H9         -6.2131   -5.9580    0.9276 H         1 <0>         0.0914
     39 H10        -8.6521   -5.5115    0.9462 H         1 <0>         0.0835
     40 H11        -8.6653   -5.5093   -0.8338 H         1 <0>         0.0835
     41 H12        -7.8530   -7.8521   -0.8426 H         1 <0>         0.0913
     42 H13        -7.8399   -7.8543    0.9373 H         1 <0>         0.0915
     43 H14       -10.4199   -7.1041    0.0672 H         1 <0>         0.4172
     44 H15        -8.7093  -12.0801    0.0589 H         1 <0>         0.1875
     45 H16       -12.3554  -15.3666   -0.8196 H         1 <0>         0.0657
     46 H17       -12.3498  -15.3666    0.9604 H         1 <0>         0.0657
     47 H18       -14.5162  -16.1883    0.0773 H         1 <0>         0.0778
     48 H19       -14.7271  -14.6617    0.9680 H         1 <0>         0.0658
     49 H20       -14.7328  -14.6617   -0.8120 H         1 <0>         0.0658
     50 H21        -6.0133   -1.6160    0.0407 H         1 <0>         0.4162
     51 H22       -12.1054   -8.7174    0.0777 H         1 <0>         0.4162
@<TRIPOS>BOND
     1    1    2 1
     2    1   30 1
     3    1   31 1
     4    1   32 1
     5    2    3 1
     6    2   33 1
     7    2   34 1
     8    3    4 1
     9    4    5 2
    10    4    6 1
    11    6   11 1
    12    6    7 2
    13    7    8 1
    14    7   35 1
    15    8    9 2
    16    9   10 1
    17    9   13 1
    18   10   11 am
    19   10   50 1
    20   11   12 2
    21   13   14 1
    22   13   36 1
    23   14   15 1
    24   14   37 1
    25   14   38 1
    26   15   16 1
    27   15   39 1
    28   15   40 1
    29   16   17 1
    30   16   41 1
    31   16   42 1
    32   17   18 1
    33   17   43 1
    34   18   23 1
    35   18   19 2
    36   19   20 1
    37   20   21 2
    38   20   44 1
    39   21   22 1
    40   21   25 1
    41   22   23 am
    42   22   24 2
    43   23   51 1
    44   25   26 2
    45   25   27 1
    46   27   28 1
    47   28   29 1
    48   28   45 1
    49   28   46 1
    50   29   47 1
    51   29   48 1
    52   29   49 1
@<TRIPOS>MOLECULE
ZINC05765083
   40    43     0     0     0
SMALL
USER_CHARGES

@<TRIPOS>ATOM
      1 C1         -0.0184    1.5028    0.0103 C.3       1 <0>        -0.1421
      2 C2          0.0021   -0.0041    0.0020 C.ar      1 <0>         0.0465
      3 C3          0.0058   -0.6879   -1.1956 C.ar      1 <0>        -0.1707
      4 C4          0.0184   -2.0760   -1.2173 C.ar      1 <0>         0.2292
      5 C5         -0.0022   -2.8031   -0.0107 C.ar      1 <0>        -0.2316
      6 C6         -0.0144   -2.1077    1.2044 C.ar      1 <0>         0.2016
      7 C7          0.0231   -0.7094    1.2066 C.ar      1 <0>        -0.2332
      8 C8          0.1502   -0.0145    2.4977 C.2       1 <0>         0.5489
      9 O1         -0.7088    0.7605    2.8696 O.2       1 <0>        -0.3901
     10 O2          1.2304   -0.2516    3.2576 O.3       1 <0>        -0.2907
     11 C9          1.5089   -1.4970    3.7310 C.ar      1 <0>         0.1765
     12 C10         2.5105   -1.5483    4.7047 C.ar      1 <0>        -0.1166
     13 C11         2.8937   -2.7460    5.2749 C.ar      1 <0>         0.2453
     14 C12         2.2660   -3.9311    4.8688 C.ar      1 <0>        -0.2117
     15 C13         1.2666   -3.8725    3.8945 C.ar      1 <0>        -0.0537
     16 C14         0.8862   -2.6665    3.3253 C.ar      1 <0>         0.0704
     17 O3         -0.1008   -2.7384    2.3892 O.3       1 <0>        -0.2463
     18 C15         0.8011   -5.2912    3.6836 C.3       1 <0>         0.3064
     19 H1          0.9734   -5.5911    2.6499 H         1 <0>         0.1289
     20 O4          1.5737   -6.1096    4.5668 O.3       1 <0>        -0.3301
     21 C16         2.4277   -5.3372    5.2610 C.2       1 <0>         0.5402
     22 O5          3.2171   -5.7428    6.0913 O.2       1 <0>        -0.4200
     23 O6         -0.5879   -5.4029    4.0004 O.3       1 <0>        -0.5278
     24 O7          3.8684   -2.7751    6.2186 O.3       1 <0>        -0.4703
     25 C17         3.1843   -0.2727    5.1405 C.3       1 <0>         0.1233
     26 O8          2.4692    0.2917    6.2415 O.3       1 <0>        -0.5640
     27 C18        -0.0112   -4.2673   -0.0272 C.2       1 <0>         0.3842
     28 O9         -0.0009   -4.8621   -1.0848 O.2       1 <0>        -0.4292
     29 O10         0.0501   -2.7328   -2.4012 O.3       1 <0>        -0.4697
     30 H2          1.0042    1.8801    0.0026 H         1 <0>         0.0910
     31 H3         -0.5455    1.8639   -0.8728 H         1 <0>         0.0910
     32 H4         -0.5286    1.8543    0.9071 H         1 <0>         0.0875
     33 H5         -0.0015   -0.1384   -2.1253 H         1 <0>         0.1566
     34 H6         -0.9473   -6.2932    3.8847 H         1 <0>         0.4030
     35 H7          3.5425   -2.6775    7.1238 H         1 <0>         0.4143
     36 H8          4.2085   -0.4884    5.4447 H         1 <0>         0.0771
     37 H9          3.1930    0.4352    4.3117 H         1 <0>         0.0702
     38 H10         2.8476    1.1167    6.5748 H         1 <0>         0.3898
     39 H11        -0.0270   -4.8177    0.9018 H         1 <0>         0.1071
     40 H12         0.9425   -2.9158   -2.7257 H         1 <0>         0.4088
@<TRIPOS>BOND
     1    1    2 1
     2    1   30 1
     3    1   31 1
     4    1   32 1
     5    2    7 ar
     6    2    3 ar
     7    3    4 ar
     8    3   33 1
     9    4    5 ar
    10    4   29 1
    11    5    6 ar
    12    5   27 1
    13    6   17 1
    14    6    7 ar
    15    7    8 1
    16    8    9 2
    17    8   10 1
    18   10   11 1
    19   11   16 ar
    20   11   12 ar
    21   12   13 ar
    22   12   25 1
    23   13   14 ar
    24   13   24 1
    25   14   21 1
    26   14   15 ar
    27   15   16 ar
    28   15   18 1
    29   16   17 1
    30   18   19 1
    31   18   20 1
    32   18   23 1
    33   20   21 1
    34   21   22 2
    35   23   34 1
    36   24   35 1
    37   25   26 1
    38   25   36 1
    39   25   37 1
    40   26   38 1
    41   27   28 2
    42   27   39 1
    43   29   40 1
@<TRIPOS>MOLECULE
ZINC05765083
   38    41     0     0     0
SMALL
USER_CHARGES

@<TRIPOS>ATOM
      1 C1          0.2698    1.4177   -0.1867 C.3       1 <0>        -0.1229
      2 C2          0.2651   -0.0890   -0.1555 C.ar      1 <0>         0.0392
      3 C3          0.3168   -0.8041   -1.3335 C.ar      1 <0>        -0.2697
      4 C4          0.3068   -2.1924   -1.3191 C.ar      1 <0>         0.3397
      5 O1          0.3874   -2.8805   -2.4827 O.3       1 <0>        -0.6542
      6 C5          0.2137   -2.8872   -0.0971 C.ar      1 <0>        -0.3496
      7 C6          0.1810   -4.3509   -0.0768 C.2       1 <0>         0.3876
      8 O2          0.2343   -4.9734   -1.1171 O.2       1 <0>        -0.4692
      9 C7          0.1523   -2.1598    1.0981 C.ar      1 <0>         0.2427
     10 C8          0.2142   -0.7627    1.0661 C.ar      1 <0>        -0.3562
     11 C9          0.2905   -0.0377    2.3442 C.2       1 <0>         0.5680
     12 O3         -0.5724    0.7600    2.6542 O.2       1 <0>        -0.4604
     13 O4          1.3278   -0.2711    3.1612 O.3       1 <0>        -0.3188
     14 C10         1.5642   -1.5063    3.6837 C.2       1 <0>         0.2129
     15 C11         2.5151   -1.5292    4.6984 C.2       1 <0>        -0.2728
     16 C12         2.8648   -2.7220    5.3362 C.2       1 <0>         0.4492
     17 O5          3.7034   -2.7358    6.2287 O.2       1 <0>        -0.5398
     18 C13         2.2010   -3.9547    4.9089 C.2       1 <0>        -0.4037
     19 C14         2.3021   -5.2871    5.3171 C.2       1 <0>         0.5038
     20 O6          1.4783   -6.0782    4.6196 O.3       1 <0>        -0.3397
     21 C15         0.7540   -5.2846    3.6708 C.3       1 <0>         0.2994
     22 H1          0.9715   -5.6168    2.6557 H         1 <0>         0.1157
     23 C16         1.2474   -3.8727    3.8768 C.2       1 <0>        -0.0031
     24 C17         0.9363   -2.6819    3.2770 C.2       1 <0>        -0.0493
     25 O7         -0.0043   -2.7566    2.2919 O.3       1 <0>        -0.2681
     26 O8         -0.6496   -5.3635    3.9274 O.3       1 <0>        -0.5291
     27 O9          3.1226   -5.7196    6.2877 O.3       1 <0>        -0.5644
     28 C18         3.1808   -0.2437    5.1173 C.3       1 <0>         0.1577
     29 O10         4.5953   -0.3645    4.9536 O.3       1 <0>        -0.5564
     30 H2          1.2978    1.7786   -0.1527 H         1 <0>         0.0651
     31 H3         -0.2066    1.7636   -1.1040 H         1 <0>         0.0652
     32 H4         -0.2783    1.8006    0.6741 H         1 <0>         0.0711
     33 H5          0.3651   -0.2793   -2.2762 H         1 <0>         0.1101
     34 H6          0.1095   -4.8765    0.8639 H         1 <0>         0.0682
     35 H7         -1.0138   -6.2561    3.8509 H         1 <0>         0.3817
     36 H8          2.8121    0.5747    4.4990 H         1 <0>         0.0493
     37 H9          2.9522   -0.0403    6.1635 H         1 <0>         0.0413
     38 H10         5.0894    0.4279    5.2047 H         1 <0>         0.3597
@<TRIPOS>BOND
     1    1    2 1
     2    1   30 1
     3    1   31 1
     4    1   32 1
     5    2   10 ar
     6    2    3 ar
     7    3    4 ar
     8    3   33 1
     9    4    5 1
    10    4    6 ar
    11    6    7 1
    12    6    9 ar
    13    7    8 2
    14    7   34 1
    15    9   25 1
    16    9   10 ar
    17   10   11 1
    18   11   12 2
    19   11   13 1
    20   13   14 1
    21   14   24 1
    22   14   15 2
    23   15   16 1
    24   15   28 1
    25   16   17 2
    26   16   18 1
    27   18   23 1
    28   18   19 2
    29   19   20 1
    30   19   27 1
    31   20   21 1
    32   21   22 1
    33   21   23 1
    34   21   26 1
    35   23   24 2
    36   24   25 1
    37   26   35 1
    38   28   29 1
    39   28   36 1
    40   28   37 1
    41   29   38 1
@<TRIPOS>MOLECULE
ZINC05765083
   38    41     0     0     0
SMALL
USER_CHARGES

@<TRIPOS>ATOM
      1 C1          0.2693    1.4179   -0.1863 C.3       1 <0>        -0.1351
      2 C2          0.2646   -0.0888   -0.1552 C.ar      1 <0>         0.0381
      3 C3          0.3162   -0.8039   -1.3333 C.ar      1 <0>        -0.1937
      4 C4          0.3063   -2.1922   -1.3189 C.ar      1 <0>         0.2115
      5 O1          0.3867   -2.8802   -2.4826 O.3       1 <0>        -0.4787
      6 C5          0.2133   -2.8870   -0.0969 C.ar      1 <0>        -0.2516
      7 C6          0.1806   -4.3507   -0.0768 C.2       1 <0>         0.3957
      8 O2          0.2338   -4.9731   -1.1170 O.2       1 <0>        -0.4597
      9 C7          0.1520   -2.1597    1.0982 C.ar      1 <0>         0.2297
     10 C8          0.2138   -0.7626    1.0664 C.ar      1 <0>        -0.2333
     11 C9          0.2902   -0.0376    2.3445 C.2       1 <0>         0.5509
     12 O3         -0.5727    0.7600    2.6546 O.2       1 <0>        -0.4470
     13 O4          1.3276   -0.2711    3.1614 O.3       1 <0>        -0.2853
     14 C10         1.5641   -1.5063    3.6838 C.2       1 <0>         0.0878
     15 C11         2.5151   -1.5292    4.6984 C.2       1 <0>        -0.1517
     16 C12         2.8649   -2.7220    5.3362 C.2       1 <0>         0.4406
     17 O5          3.7036   -2.7358    6.2285 O.2       1 <0>        -0.4976
     18 C13         2.2011   -3.9547    4.9088 C.2       1 <0>        -0.4224
     19 C14         2.3023   -5.2871    5.3169 C.2       1 <0>         0.4957
     20 O6          1.4784   -6.0782    4.6195 O.3       1 <0>        -0.3459
     21 C15         0.7540   -5.2846    3.6708 C.3       1 <0>         0.3064
     22 H1          0.9714   -5.6167    2.6557 H         1 <0>         0.1012
     23 C16         1.2474   -3.8727    3.8768 C.2       1 <0>        -0.0334
     24 C17         0.9362   -2.6819    3.2771 C.2       1 <0>        -0.0482
     25 O7         -0.0045   -2.7566    2.2921 O.3       1 <0>        -0.2589
     26 O8         -0.6495   -5.3636    3.9275 O.3       1 <0>        -0.5347
     27 O9          3.1229   -5.7196    6.2874 O.3       1 <0>        -0.5735
     28 C18         3.1808   -0.2437    5.1173 C.3       1 <0>         0.1992
     29 O10         4.5953   -0.3645    4.9536 O.3       1 <0>        -0.9046
     30 H2          1.2972    1.7788   -0.1524 H         1 <0>         0.0856
     31 H3         -0.2072    1.7638   -1.1036 H         1 <0>         0.0775
     32 H4         -0.2788    1.8007    0.6746 H         1 <0>         0.0870
     33 H5          0.3644   -0.2790   -2.2760 H         1 <0>         0.1415
     34 H6          0.1092   -4.8764    0.8640 H         1 <0>         0.1068
     35 H7         -1.0137   -6.2561    3.8510 H         1 <0>         0.3764
     36 H8          2.8121    0.5747    4.4990 H         1 <0>        -0.0354
     37 H9          2.9522   -0.0403    6.1635 H         1 <0>        -0.0392
     38 H10         1.2911   -3.0856   -2.7563 H         1 <0>         0.3984
@<TRIPOS>BOND
     1    1    2 1
     2    1   30 1
     3    1   31 1
     4    1   32 1
     5    2   10 ar
     6    2    3 ar
     7    3    4 ar
     8    3   33 1
     9    4    5 1
    10    4    6 ar
    11    5   38 1
    12    6    7 1
    13    6    9 ar
    14    7    8 2
    15    7   34 1
    16    9   25 1
    17    9   10 ar
    18   10   11 1
    19   11   12 2
    20   11   13 1
    21   13   14 1
    22   14   24 1
    23   14   15 2
    24   15   16 1
    25   15   28 1
    26   16   17 2
    27   16   18 1
    28   18   23 1
    29   18   19 2
    30   19   20 1
    31   19   27 1
    32   20   21 1
    33   21   22 1
    34   21   23 1
    35   21   26 1
    36   23   24 2
    37   24   25 1
    38   26   35 1
    39   28   29 1
    40   28   36 1
    41   28   37 1
@<TRIPOS>MOLECULE
ZINC05765083
   39    42     0     0     0
SMALL
USER_CHARGES

@<TRIPOS>ATOM
      1 C1         -0.0184    1.5028    0.0103 C.3       1 <0>        -0.1376
      2 C2          0.0021   -0.0041    0.0020 C.ar      1 <0>         0.0412
      3 C3          0.0058   -0.6879   -1.1956 C.ar      1 <0>        -0.1868
      4 C4          0.0184   -2.0760   -1.2173 C.ar      1 <0>         0.2204
      5 C5         -0.0022   -2.8031   -0.0107 C.ar      1 <0>        -0.2453
      6 C6         -0.0144   -2.1077    1.2044 C.ar      1 <0>         0.2217
      7 C7          0.0231   -0.7094    1.2066 C.ar      1 <0>        -0.2382
      8 C8          0.1502   -0.0145    2.4977 C.2       1 <0>         0.5539
      9 O1         -0.7088    0.7605    2.8696 O.2       1 <0>        -0.4200
     10 O2          1.2304   -0.2516    3.2576 O.3       1 <0>        -0.2996
     11 C9          1.5089   -1.4970    3.7310 C.ar      1 <0>         0.1884
     12 C10         2.5105   -1.5483    4.7047 C.ar      1 <0>        -0.2145
     13 C11         2.8937   -2.7460    5.2749 C.ar      1 <0>         0.3619
     14 C12         2.2660   -3.9311    4.8688 C.ar      1 <0>        -0.3194
     15 C13         1.2666   -3.8725    3.8945 C.ar      1 <0>        -0.0200
     16 C14         0.8862   -2.6665    3.3253 C.ar      1 <0>        -0.0590
     17 O3         -0.1008   -2.7384    2.3892 O.3       1 <0>        -0.2505
     18 C15         0.8011   -5.2912    3.6836 C.3       1 <0>         0.3079
     19 H1          0.9734   -5.5911    2.6499 H         1 <0>         0.1094
     20 O4          1.5737   -6.1096    4.5668 O.3       1 <0>        -0.3568
     21 C16         2.4277   -5.3372    5.2610 C.2       1 <0>         0.5387
     22 O5          3.2171   -5.7428    6.0913 O.2       1 <0>        -0.4515
     23 O6         -0.5879   -5.4029    4.0004 O.3       1 <0>        -0.5332
     24 O7          3.8684   -2.7751    6.2186 O.3       1 <0>        -0.6359
     25 C17         3.1843   -0.2727    5.1405 C.3       1 <0>         0.1513
     26 O8          2.4692    0.2917    6.2415 O.3       1 <0>        -0.5639
     27 C18        -0.0112   -4.2673   -0.0272 C.2       1 <0>         0.3909
     28 O9         -0.0009   -4.8621   -1.0848 O.2       1 <0>        -0.4475
     29 O10         0.0501   -2.7328   -2.4012 O.3       1 <0>        -0.4749
     30 H2          1.0042    1.8801    0.0026 H         1 <0>         0.0861
     31 H3         -0.5455    1.8639   -0.8728 H         1 <0>         0.0834
     32 H4         -0.5286    1.8543    0.9071 H         1 <0>         0.0866
     33 H5         -0.0015   -0.1384   -2.1253 H         1 <0>         0.1473
     34 H6         -0.9473   -6.2932    3.8847 H         1 <0>         0.3866
     35 H7          4.2085   -0.4884    5.4447 H         1 <0>         0.0608
     36 H8          3.1930    0.4352    4.3117 H         1 <0>         0.0413
     37 H9          2.8476    1.1167    6.5748 H         1 <0>         0.3662
     38 H10        -0.0270   -4.8177    0.9018 H         1 <0>         0.1078
     39 H11         0.9425   -2.9158   -2.7257 H         1 <0>         0.4027
@<TRIPOS>BOND
     1    1    2 1
     2    1   30 1
     3    1   31 1
     4    1   32 1
     5    2    7 ar
     6    2    3 ar
     7    3    4 ar
     8    3   33 1
     9    4    5 ar
    10    4   29 1
    11    5    6 ar
    12    5   27 1
    13    6   17 1
    14    6    7 ar
    15    7    8 1
    16    8    9 2
    17    8   10 1
    18   10   11 1
    19   11   16 ar
    20   11   12 ar
    21   12   13 ar
    22   12   25 1
    23   13   14 ar
    24   13   24 1
    25   14   21 1
    26   14   15 ar
    27   15   16 ar
    28   15   18 1
    29   16   17 1
    30   18   19 1
    31   18   20 1
    32   18   23 1
    33   20   21 1
    34   21   22 2
    35   23   34 1
    36   25   26 1
    37   25   35 1
    38   25   36 1
    39   26   37 1
    40   27   28 2
    41   27   38 1
    42   29   39 1
@<TRIPOS>MOLECULE
ZINC05765083
   39    42     0     0     0
SMALL
USER_CHARGES

@<TRIPOS>ATOM
      1 C1         -0.0184    1.5028    0.0103 C.3       1 <0>        -0.1265
      2 C2          0.0021   -0.0041    0.0020 C.ar      1 <0>         0.0381
      3 C3          0.0058   -0.6879   -1.1956 C.ar      1 <0>        -0.2504
      4 C4          0.0184   -2.0760   -1.2173 C.ar      1 <0>         0.3384
      5 C5         -0.0022   -2.8031   -0.0107 C.ar      1 <0>        -0.3325
      6 C6         -0.0144   -2.1077    1.2044 C.ar      1 <0>         0.2205
      7 C7          0.0231   -0.7094    1.2066 C.ar      1 <0>        -0.3497
      8 C8          0.1502   -0.0145    2.4977 C.2       1 <0>         0.5608
      9 O1         -0.7088    0.7605    2.8696 O.2       1 <0>        -0.4298
     10 O2          1.2304   -0.2516    3.2576 O.3       1 <0>        -0.3039
     11 C9          1.5089   -1.4970    3.7310 C.ar      1 <0>         0.1841
     12 C10         2.5105   -1.5483    4.7047 C.ar      1 <0>        -0.1265
     13 C11         2.8937   -2.7460    5.2749 C.ar      1 <0>         0.2310
     14 C12         2.2660   -3.9311    4.8688 C.ar      1 <0>        -0.2238
     15 C13         1.2666   -3.8725    3.8945 C.ar      1 <0>        -0.0601
     16 C14         0.8862   -2.6665    3.3253 C.ar      1 <0>         0.0884
     17 O3         -0.1008   -2.7384    2.3892 O.3       1 <0>        -0.2577
     18 C15         0.8011   -5.2912    3.6836 C.3       1 <0>         0.3063
     19 H1          0.9734   -5.5911    2.6499 H         1 <0>         0.1318
     20 O4          1.5737   -6.1096    4.5668 O.3       1 <0>        -0.3353
     21 C16         2.4277   -5.3372    5.2610 C.2       1 <0>         0.5437
     22 O5          3.2171   -5.7428    6.0913 O.2       1 <0>        -0.4362
     23 O6         -0.5879   -5.4029    4.0004 O.3       1 <0>        -0.5259
     24 O7          3.8684   -2.7751    6.2186 O.3       1 <0>        -0.4739
     25 C17         3.1843   -0.2727    5.1405 C.3       1 <0>         0.1272
     26 O8          2.4692    0.2917    6.2415 O.3       1 <0>        -0.5646
     27 C18        -0.0112   -4.2673   -0.0272 C.2       1 <0>         0.3819
     28 O9         -0.0009   -4.8621   -1.0848 O.2       1 <0>        -0.4511
     29 O10         0.0501   -2.7328   -2.4012 O.3       1 <0>        -0.6323
     30 H2          1.0042    1.8801    0.0026 H         1 <0>         0.0689
     31 H3         -0.5455    1.8639   -0.8728 H         1 <0>         0.0719
     32 H4         -0.5286    1.8543    0.9071 H         1 <0>         0.0718
     33 H5         -0.0015   -0.1384   -2.1253 H         1 <0>         0.1191
     34 H6         -0.9473   -6.2932    3.8847 H         1 <0>         0.3975
     35 H7          3.5425   -2.6775    7.1238 H         1 <0>         0.4061
     36 H8          4.2085   -0.4884    5.4447 H         1 <0>         0.0715
     37 H9          3.1930    0.4352    4.3117 H         1 <0>         0.0696
     38 H10         2.8476    1.1167    6.5748 H         1 <0>         0.3836
     39 H11        -0.0270   -4.8177    0.9018 H         1 <0>         0.0680
@<TRIPOS>BOND
     1    1    2 1
     2    1   30 1
     3    1   31 1
     4    1   32 1
     5    2    7 ar
     6    2    3 ar
     7    3    4 ar
     8    3   33 1
     9    4    5 ar
    10    4   29 1
    11    5    6 ar
    12    5   27 1
    13    6   17 1
    14    6    7 ar
    15    7    8 1
    16    8    9 2
    17    8   10 1
    18   10   11 1
    19   11   16 ar
    20   11   12 ar
    21   12   13 ar
    22   12   25 1
    23   13   14 ar
    24   13   24 1
    25   14   21 1
    26   14   15 ar
    27   15   16 ar
    28   15   18 1
    29   16   17 1
    30   18   19 1
    31   18   20 1
    32   18   23 1
    33   20   21 1
    34   21   22 2
    35   23   34 1
    36   24   35 1
    37   25   26 1
    38   25   36 1
    39   25   37 1
    40   26   38 1
    41   27   28 2
    42   27   39 1
@<TRIPOS>MOLECULE
ZINC18028709
   40    43     0     0     0
SMALL
USER_CHARGES

@<TRIPOS>ATOM
      1 C1         -0.0184    1.5028    0.0103 C.3       1 <0>        -0.1412
      2 C2          0.0021   -0.0041    0.0020 C.ar      1 <0>         0.0431
      3 C3          0.0058   -0.6879   -1.1956 C.ar      1 <0>        -0.1704
      4 C4          0.0193   -2.0760   -1.2173 C.ar      1 <0>         0.2253
      5 C5         -0.0013   -2.8031   -0.0107 C.ar      1 <0>        -0.2268
      6 C6         -0.0144   -2.1077    1.2044 C.ar      1 <0>         0.2031
      7 C7          0.0231   -0.7094    1.2066 C.ar      1 <0>        -0.2346
      8 C8          0.1502   -0.0145    2.4977 C.2       1 <0>         0.5495
      9 O1         -0.7088    0.7605    2.8696 O.2       1 <0>        -0.3916
     10 O2          1.2304   -0.2516    3.2576 O.3       1 <0>        -0.2910
     11 C9          1.5089   -1.4970    3.7310 C.ar      1 <0>         0.1766
     12 C10         2.5105   -1.5483    4.7047 C.ar      1 <0>        -0.1166
     13 C11         2.8943   -2.7461    5.2743 C.ar      1 <0>         0.2450
     14 C12         2.2667   -3.9312    4.8682 C.ar      1 <0>        -0.2119
     15 C13         1.2666   -3.8725    3.8945 C.ar      1 <0>        -0.0531
     16 C14         0.8862   -2.6665    3.3253 C.ar      1 <0>         0.0699
     17 O3         -0.1008   -2.7385    2.3891 O.3       1 <0>        -0.2517
     18 C15         0.8012   -5.2912    3.6834 C.3       1 <0>         0.3076
     19 H1         -0.2578   -5.3770    3.9265 H         1 <0>         0.1382
     20 O4          1.5746   -6.1098    4.5659 O.3       1 <0>        -0.3291
     21 C16         2.4289   -5.3374    5.2598 C.2       1 <0>         0.5403
     22 O5          3.2189   -5.7431    6.0895 O.2       1 <0>        -0.4205
     23 O6          1.0253   -5.6835    2.3277 O.3       1 <0>        -0.5363
     24 O7          3.8696   -2.7753    6.2173 O.3       1 <0>        -0.4700
     25 C17         3.1843   -0.2727    5.1405 C.3       1 <0>         0.1232
     26 O8          2.4692    0.2917    6.2415 O.3       1 <0>        -0.5643
     27 C18        -0.0093   -4.2673   -0.0273 C.2       1 <0>         0.3774
     28 O9          0.0018   -4.8621   -1.0848 O.2       1 <0>        -0.4375
     29 O10         0.0519   -2.7327   -2.4012 O.3       1 <0>        -0.4699
     30 H2          1.0042    1.8801    0.0026 H         1 <0>         0.0901
     31 H3         -0.5455    1.8639   -0.8728 H         1 <0>         0.0905
     32 H4         -0.5286    1.8543    0.9071 H         1 <0>         0.0870
     33 H5         -0.0015   -0.1384   -2.1253 H         1 <0>         0.1557
     34 H6          0.7463   -6.5877    2.1287 H         1 <0>         0.4058
     35 H7          3.5443   -2.6780    7.1227 H         1 <0>         0.4137
     36 H8          4.2085   -0.4884    5.4447 H         1 <0>         0.0770
     37 H9          3.1930    0.4352    4.3117 H         1 <0>         0.0701
     38 H10         2.8476    1.1167    6.5748 H         1 <0>         0.3898
     39 H11        -0.0251   -4.8178    0.9018 H         1 <0>         0.1294
     40 H12         0.9446   -2.9152   -2.7253 H         1 <0>         0.4084
@<TRIPOS>BOND
     1    1    2 1
     2    1   30 1
     3    1   31 1
     4    1   32 1
     5    2    7 ar
     6    2    3 ar
     7    3    4 ar
     8    3   33 1
     9    4    5 ar
    10    4   29 1
    11    5    6 ar
    12    5   27 1
    13    6   17 1
    14    6    7 ar
    15    7    8 1
    16    8    9 2
    17    8   10 1
    18   10   11 1
    19   11   16 ar
    20   11   12 ar
    21   12   13 ar
    22   12   25 1
    23   13   14 ar
    24   13   24 1
    25   14   21 1
    26   14   15 ar
    27   15   16 ar
    28   15   18 1
    29   16   17 1
    30   18   19 1
    31   18   20 1
    32   18   23 1
    33   20   21 1
    34   21   22 2
    35   23   34 1
    36   24   35 1
    37   25   26 1
    38   25   36 1
    39   25   37 1
    40   26   38 1
    41   27   28 2
    42   27   39 1
    43   29   40 1
@<TRIPOS>MOLECULE
ZINC18028709
   38    41     0     0     0
SMALL
USER_CHARGES

@<TRIPOS>ATOM
      1 C1          0.2693    1.4179   -0.1863 C.3       1 <0>        -0.1341
      2 C2          0.2646   -0.0888   -0.1552 C.ar      1 <0>         0.0340
      3 C3          0.3162   -0.8039   -1.3333 C.ar      1 <0>        -0.1932
      4 C4          0.3063   -2.1922   -1.3189 C.ar      1 <0>         0.2068
      5 O1          0.3867   -2.8802   -2.4826 O.3       1 <0>        -0.4788
      6 C5          0.2123   -2.8870   -0.0970 C.ar      1 <0>        -0.2464
      7 C6          0.1797   -4.3507   -0.0768 C.2       1 <0>         0.3860
      8 O2          0.2337   -4.9731   -1.1171 O.2       1 <0>        -0.4686
      9 C7          0.1510   -2.1597    1.0982 C.ar      1 <0>         0.2310
     10 C8          0.2138   -0.7626    1.0664 C.ar      1 <0>        -0.2343
     11 C9          0.2902   -0.0376    2.3445 C.2       1 <0>         0.5515
     12 O3         -0.5731    0.7594    2.6550 O.2       1 <0>        -0.4485
     13 O4          1.3276   -0.2711    3.1614 O.3       1 <0>        -0.2858
     14 C10         1.5641   -1.5063    3.6838 C.2       1 <0>         0.0886
     15 C11         2.5151   -1.5292    4.6984 C.2       1 <0>        -0.1528
     16 C12         2.8649   -2.7220    5.3362 C.2       1 <0>         0.4404
     17 O5          3.7036   -2.7358    6.2285 O.2       1 <0>        -0.4979
     18 C13         2.2011   -3.9547    4.9088 C.2       1 <0>        -0.4214
     19 C14         2.3023   -5.2871    5.3169 C.2       1 <0>         0.4955
     20 O6          1.4784   -6.0782    4.6195 O.3       1 <0>        -0.3450
     21 C15         0.7540   -5.2846    3.6708 C.3       1 <0>         0.3068
     22 H1         -0.3164   -5.3435    3.8676 H         1 <0>         0.1103
     23 C16         1.2474   -3.8727    3.8768 C.2       1 <0>        -0.0340
     24 C17         0.9362   -2.6819    3.2771 C.2       1 <0>        -0.0493
     25 O7         -0.0062   -2.7565    2.2920 O.3       1 <0>        -0.2652
     26 O8          1.0373   -5.7215    2.3401 O.3       1 <0>        -0.5408
     27 O9          3.1235   -5.7197    6.2869 O.3       1 <0>        -0.5739
     28 C18         3.1808   -0.2437    5.1173 C.3       1 <0>         0.1992
     29 O10         4.5953   -0.3645    4.9536 O.3       1 <0>        -0.9045
     30 H2          1.2972    1.7788   -0.1524 H         1 <0>         0.0847
     31 H3         -0.2072    1.7638   -1.1036 H         1 <0>         0.0768
     32 H4         -0.2788    1.8007    0.6746 H         1 <0>         0.0864
     33 H5          0.3644   -0.2790   -2.2760 H         1 <0>         0.1404
     34 H6          0.1075   -4.8764    0.8638 H         1 <0>         0.1335
     35 H7          0.7797   -6.6366    2.1633 H         1 <0>         0.3796
     36 H8          2.8121    0.5747    4.4990 H         1 <0>        -0.0356
     37 H9          2.9522   -0.0403    6.1635 H         1 <0>        -0.0395
     38 H10         1.2911   -3.0856   -2.7563 H         1 <0>         0.3979
@<TRIPOS>BOND
     1    1    2 1
     2    1   30 1
     3    1   31 1
     4    1   32 1
     5    2   10 ar
     6    2    3 ar
     7    3    4 ar
     8    3   33 1
     9    4    5 1
    10    4    6 ar
    11    5   38 1
    12    6    7 1
    13    6    9 ar
    14    7    8 2
    15    7   34 1
    16    9   25 1
    17    9   10 ar
    18   10   11 1
    19   11   12 2
    20   11   13 1
    21   13   14 1
    22   14   24 1
    23   14   15 2
    24   15   16 1
    25   15   28 1
    26   16   17 2
    27   16   18 1
    28   18   23 1
    29   18   19 2
    30   19   20 1
    31   19   27 1
    32   20   21 1
    33   21   22 1
    34   21   23 1
    35   21   26 1
    36   23   24 2
    37   24   25 1
    38   26   35 1
    39   28   29 1
    40   28   36 1
    41   28   37 1
@<TRIPOS>MOLECULE
ZINC18028709
   38    41     0     0     0
SMALL
USER_CHARGES

@<TRIPOS>ATOM
      1 C1          0.2698    1.4177   -0.1867 C.3       1 <0>        -0.1221
      2 C2          0.2651   -0.0890   -0.1555 C.ar      1 <0>         0.0375
      3 C3          0.3168   -0.8041   -1.3335 C.ar      1 <0>        -0.2716
      4 C4          0.3068   -2.1924   -1.3191 C.ar      1 <0>         0.3366
      5 O1          0.3874   -2.8805   -2.4827 O.3       1 <0>        -0.6556
      6 C5          0.2128   -2.8872   -0.0971 C.ar      1 <0>        -0.3452
      7 C6          0.1800   -4.3509   -0.0769 C.2       1 <0>         0.3791
      8 O2          0.2341   -4.9734   -1.1171 O.2       1 <0>        -0.4779
      9 C7          0.1514   -2.1598    1.0980 C.ar      1 <0>         0.2435
     10 C8          0.2142   -0.7627    1.0661 C.ar      1 <0>        -0.3595
     11 C9          0.2905   -0.0377    2.3442 C.2       1 <0>         0.5684
     12 O3         -0.5728    0.7594    2.6546 O.2       1 <0>        -0.4624
     13 O4          1.3278   -0.2711    3.1612 O.3       1 <0>        -0.3194
     14 C10         1.5642   -1.5063    3.6837 C.2       1 <0>         0.2138
     15 C11         2.5151   -1.5292    4.6984 C.2       1 <0>        -0.2743
     16 C12         2.8648   -2.7220    5.3362 C.2       1 <0>         0.4490
     17 O5          3.7034   -2.7358    6.2287 O.2       1 <0>        -0.5403
     18 C13         2.2010   -3.9547    4.9089 C.2       1 <0>        -0.4027
     19 C14         2.3021   -5.2871    5.3171 C.2       1 <0>         0.5039
     20 O6          1.4783   -6.0782    4.6196 O.3       1 <0>        -0.3397
     21 C15         0.7540   -5.2846    3.6708 C.3       1 <0>         0.2990
     22 H1         -0.3165   -5.3434    3.8676 H         1 <0>         0.1174
     23 C16         1.2474   -3.8727    3.8768 C.2       1 <0>        -0.0036
     24 C17         0.9363   -2.6819    3.2770 C.2       1 <0>        -0.0508
     25 O7         -0.0060   -2.7566    2.2918 O.3       1 <0>        -0.2739
     26 O8          1.0374   -5.7215    2.3401 O.3       1 <0>        -0.5255
     27 O9          3.1232   -5.7197    6.2871 O.3       1 <0>        -0.5651
     28 C18         3.1808   -0.2437    5.1173 C.3       1 <0>         0.1578
     29 O10         4.5953   -0.3645    4.9536 O.3       1 <0>        -0.5563
     30 H2          1.2978    1.7786   -0.1527 H         1 <0>         0.0643
     31 H3         -0.2066    1.7636   -1.1040 H         1 <0>         0.0646
     32 H4         -0.2783    1.8006    0.6741 H         1 <0>         0.0706
     33 H5          0.3651   -0.2793   -2.2762 H         1 <0>         0.1088
     34 H6          0.1078   -4.8765    0.8638 H         1 <0>         0.0987
     35 H7          0.7798   -6.6367    2.1634 H         1 <0>         0.3838
     36 H8          2.8121    0.5747    4.4990 H         1 <0>         0.0489
     37 H9          2.9522   -0.0403    6.1635 H         1 <0>         0.0410
     38 H10         5.0894    0.4279    5.2047 H         1 <0>         0.3595
@<TRIPOS>BOND
     1    1    2 1
     2    1   30 1
     3    1   31 1
     4    1   32 1
     5    2   10 ar
     6    2    3 ar
     7    3    4 ar
     8    3   33 1
     9    4    5 1
    10    4    6 ar
    11    6    7 1
    12    6    9 ar
    13    7    8 2
    14    7   34 1
    15    9   25 1
    16    9   10 ar
    17   10   11 1
    18   11   12 2
    19   11   13 1
    20   13   14 1
    21   14   24 1
    22   14   15 2
    23   15   16 1
    24   15   28 1
    25   16   17 2
    26   16   18 1
    27   18   23 1
    28   18   19 2
    29   19   20 1
    30   19   27 1
    31   20   21 1
    32   21   22 1
    33   21   23 1
    34   21   26 1
    35   23   24 2
    36   24   25 1
    37   26   35 1
    38   28   29 1
    39   28   36 1
    40   28   37 1
    41   29   38 1
@<TRIPOS>MOLECULE
ZINC18028709
   39    42     0     0     0
SMALL
USER_CHARGES

@<TRIPOS>ATOM
      1 C1         -0.0184    1.5028    0.0103 C.3       1 <0>        -0.1366
      2 C2          0.0021   -0.0041    0.0020 C.ar      1 <0>         0.0374
      3 C3          0.0058   -0.6879   -1.1956 C.ar      1 <0>        -0.1864
      4 C4          0.0193   -2.0760   -1.2173 C.ar      1 <0>         0.2162
      5 C5         -0.0013   -2.8031   -0.0107 C.ar      1 <0>        -0.2403
      6 C6         -0.0144   -2.1077    1.2044 C.ar      1 <0>         0.2230
      7 C7          0.0231   -0.7094    1.2066 C.ar      1 <0>        -0.2392
      8 C8          0.1502   -0.0145    2.4977 C.2       1 <0>         0.5545
      9 O1         -0.7088    0.7605    2.8696 O.2       1 <0>        -0.4215
     10 O2          1.2304   -0.2516    3.2576 O.3       1 <0>        -0.3000
     11 C9          1.5089   -1.4970    3.7310 C.ar      1 <0>         0.1890
     12 C10         2.5105   -1.5483    4.7047 C.ar      1 <0>        -0.2153
     13 C11         2.8943   -2.7461    5.2743 C.ar      1 <0>         0.3617
     14 C12         2.2667   -3.9312    4.8682 C.ar      1 <0>        -0.3189
     15 C13         1.2666   -3.8725    3.8945 C.ar      1 <0>        -0.0194
     16 C14         0.8862   -2.6665    3.3253 C.ar      1 <0>        -0.0602
     17 O3         -0.1008   -2.7385    2.3891 O.3       1 <0>        -0.2562
     18 C15         0.8012   -5.2912    3.6834 C.3       1 <0>         0.3086
     19 H1         -0.2578   -5.3770    3.9265 H         1 <0>         0.1184
     20 O4          1.5746   -6.1098    4.5659 O.3       1 <0>        -0.3557
     21 C16         2.4289   -5.3374    5.2598 C.2       1 <0>         0.5388
     22 O5          3.2189   -5.7431    6.0895 O.2       1 <0>        -0.4518
     23 O6          1.0253   -5.6835    2.3277 O.3       1 <0>        -0.5410
     24 O7          3.8696   -2.7753    6.2173 O.3       1 <0>        -0.6363
     25 C17         3.1843   -0.2727    5.1405 C.3       1 <0>         0.1513
     26 O8          2.4692    0.2917    6.2415 O.3       1 <0>        -0.5642
     27 C18        -0.0093   -4.2673   -0.0273 C.2       1 <0>         0.3832
     28 O9          0.0018   -4.8621   -1.0848 O.2       1 <0>        -0.4558
     29 O10         0.0519   -2.7327   -2.4012 O.3       1 <0>        -0.4751
     30 H2          1.0042    1.8801    0.0026 H         1 <0>         0.0852
     31 H3         -0.5455    1.8639   -0.8728 H         1 <0>         0.0828
     32 H4         -0.5286    1.8543    0.9071 H         1 <0>         0.0860
     33 H5         -0.0015   -0.1384   -2.1253 H         1 <0>         0.1463
     34 H6          0.7463   -6.5877    2.1287 H         1 <0>         0.3898
     35 H7          4.2085   -0.4884    5.4447 H         1 <0>         0.0607
     36 H8          3.1930    0.4352    4.3117 H         1 <0>         0.0412
     37 H9          2.8476    1.1167    6.5748 H         1 <0>         0.3663
     38 H10        -0.0251   -4.8178    0.9018 H         1 <0>         0.1314
     39 H11         0.9446   -2.9152   -2.7253 H         1 <0>         0.4023
@<TRIPOS>BOND
     1    1    2 1
     2    1   30 1
     3    1   31 1
     4    1   32 1
     5    2    7 ar
     6    2    3 ar
     7    3    4 ar
     8    3   33 1
     9    4    5 ar
    10    4   29 1
    11    5    6 ar
    12    5   27 1
    13    6   17 1
    14    6    7 ar
    15    7    8 1
    16    8    9 2
    17    8   10 1
    18   10   11 1
    19   11   16 ar
    20   11   12 ar
    21   12   13 ar
    22   12   25 1
    23   13   14 ar
    24   13   24 1
    25   14   21 1
    26   14   15 ar
    27   15   16 ar
    28   15   18 1
    29   16   17 1
    30   18   19 1
    31   18   20 1
    32   18   23 1
    33   20   21 1
    34   21   22 2
    35   23   34 1
    36   25   26 1
    37   25   35 1
    38   25   36 1
    39   26   37 1
    40   27   28 2
    41   27   38 1
    42   29   39 1
@<TRIPOS>MOLECULE
ZINC18028709
   39    42     0     0     0
SMALL
USER_CHARGES

@<TRIPOS>ATOM
      1 C1         -0.0184    1.5028    0.0103 C.3       1 <0>        -0.1258
      2 C2          0.0021   -0.0041    0.0020 C.ar      1 <0>         0.0372
      3 C3          0.0058   -0.6879   -1.1956 C.ar      1 <0>        -0.2527
      4 C4          0.0193   -2.0760   -1.2173 C.ar      1 <0>         0.3358
      5 C5         -0.0013   -2.8031   -0.0107 C.ar      1 <0>        -0.3277
      6 C6         -0.0144   -2.1077    1.2044 C.ar      1 <0>         0.2216
      7 C7          0.0231   -0.7094    1.2066 C.ar      1 <0>        -0.3537
      8 C8          0.1502   -0.0145    2.4977 C.2       1 <0>         0.5612
      9 O1         -0.7088    0.7605    2.8696 O.2       1 <0>        -0.4318
     10 O2          1.2304   -0.2516    3.2576 O.3       1 <0>        -0.3043
     11 C9          1.5089   -1.4970    3.7310 C.ar      1 <0>         0.1841
     12 C10         2.5105   -1.5483    4.7047 C.ar      1 <0>        -0.1266
     13 C11         2.8943   -2.7461    5.2743 C.ar      1 <0>         0.2306
     14 C12         2.2667   -3.9312    4.8682 C.ar      1 <0>        -0.2239
     15 C13         1.2666   -3.8725    3.8945 C.ar      1 <0>        -0.0603
     16 C14         0.8862   -2.6665    3.3253 C.ar      1 <0>         0.0878
     17 O3         -0.1008   -2.7385    2.3891 O.3       1 <0>        -0.2630
     18 C15         0.8012   -5.2912    3.6834 C.3       1 <0>         0.3064
     19 H1         -0.2578   -5.3770    3.9265 H         1 <0>         0.1337
     20 O4          1.5746   -6.1098    4.5659 O.3       1 <0>        -0.3354
     21 C16         2.4289   -5.3374    5.2598 C.2       1 <0>         0.5438
     22 O5          3.2189   -5.7431    6.0895 O.2       1 <0>        -0.4371
     23 O6          1.0253   -5.6835    2.3277 O.3       1 <0>        -0.5238
     24 O7          3.8696   -2.7753    6.2173 O.3       1 <0>        -0.4737
     25 C17         3.1843   -0.2727    5.1405 C.3       1 <0>         0.1271
     26 O8          2.4692    0.2917    6.2415 O.3       1 <0>        -0.5649
     27 C18        -0.0093   -4.2673   -0.0273 C.2       1 <0>         0.3756
     28 O9          0.0018   -4.8621   -1.0848 O.2       1 <0>        -0.4593
     29 O10         0.0519   -2.7327   -2.4012 O.3       1 <0>        -0.6334
     30 H2          1.0042    1.8801    0.0026 H         1 <0>         0.0681
     31 H3         -0.5455    1.8639   -0.8728 H         1 <0>         0.0714
     32 H4         -0.5286    1.8543    0.9071 H         1 <0>         0.0713
     33 H5         -0.0015   -0.1384   -2.1253 H         1 <0>         0.1179
     34 H6          0.7463   -6.5877    2.1287 H         1 <0>         0.3994
     35 H7          3.5443   -2.6780    7.1227 H         1 <0>         0.4054
     36 H8          4.2085   -0.4884    5.4447 H         1 <0>         0.0714
     37 H9          3.1930    0.4352    4.3117 H         1 <0>         0.0695
     38 H10         2.8476    1.1167    6.5748 H         1 <0>         0.3836
     39 H11        -0.0251   -4.8178    0.9018 H         1 <0>         0.0946
@<TRIPOS>BOND
     1    1    2 1
     2    1   30 1
     3    1   31 1
     4    1   32 1
     5    2    7 ar
     6    2    3 ar
     7    3    4 ar
     8    3   33 1
     9    4    5 ar
    10    4   29 1
    11    5    6 ar
    12    5   27 1
    13    6   17 1
    14    6    7 ar
    15    7    8 1
    16    8    9 2
    17    8   10 1
    18   10   11 1
    19   11   16 ar
    20   11   12 ar
    21   12   13 ar
    22   12   25 1
    23   13   14 ar
    24   13   24 1
    25   14   21 1
    26   14   15 ar
    27   15   16 ar
    28   15   18 1
    29   16   17 1
    30   18   19 1
    31   18   20 1
    32   18   23 1
    33   20   21 1
    34   21   22 2
    35   23   34 1
    36   24   35 1
    37   25   26 1
    38   25   36 1
    39   25   37 1
    40   26   38 1
    41   27   28 2
    42   27   39 1
@<TRIPOS>MOLECULE
ZINC01562124
   42    45     0     0     0
SMALL
USER_CHARGES

@<TRIPOS>ATOM
      1 C1         -0.0184    1.5028    0.0103 C.3       1 <0>        -0.1425
      2 C2          0.0021   -0.0041    0.0020 C.ar      1 <0>         0.0694
      3 C3          0.0058   -0.6879   -1.1956 C.ar      1 <0>        -0.2361
      4 C4          0.0184   -2.0760   -1.2173 C.ar      1 <0>         0.2404
      5 C5         -0.0022   -2.8031   -0.0107 C.ar      1 <0>        -0.2360
      6 C6         -0.0144   -2.1077    1.2044 C.ar      1 <0>         0.2241
      7 C7          0.0231   -0.7094    1.2066 C.ar      1 <0>        -0.2615
      8 C8          0.1502   -0.0145    2.4977 C.2       1 <0>         0.5524
      9 O1         -0.7088    0.7605    2.8696 O.2       1 <0>        -0.3975
     10 O2          1.2304   -0.2516    3.2576 O.3       1 <0>        -0.2923
     11 C9          1.5089   -1.4970    3.7310 C.ar      1 <0>         0.1536
     12 C10         2.5105   -1.5483    4.7047 C.ar      1 <0>        -0.1033
     13 C11         2.8937   -2.7460    5.2749 C.ar      1 <0>         0.2213
     14 C12         2.2660   -3.9311    4.8688 C.ar      1 <0>        -0.2045
     15 C13         1.2666   -3.8725    3.8945 C.ar      1 <0>        -0.0664
     16 C14         0.8862   -2.6665    3.3253 C.ar      1 <0>         0.0790
     17 O3         -0.1008   -2.7384    2.3892 O.3       1 <0>        -0.2470
     18 C15         0.8011   -5.2912    3.6836 C.3       1 <0>         0.3070
     19 H1          0.9734   -5.5911    2.6499 H         1 <0>         0.1282
     20 O4          1.5737   -6.1096    4.5668 O.3       1 <0>        -0.3311
     21 C16         2.4277   -5.3372    5.2610 C.2       1 <0>         0.5392
     22 O5          3.2171   -5.7428    6.0913 O.2       1 <0>        -0.4218
     23 O6         -0.5879   -5.4029    4.0004 O.3       1 <0>        -0.5286
     24 O7          3.8684   -2.7751    6.2186 O.3       1 <0>        -0.4692
     25 C17         3.1843   -0.2727    5.1405 C.3       1 <0>        -0.1118
     26 C18        -0.0112   -4.2673   -0.0272 C.2       1 <0>         0.3847
     27 O8         -0.0009   -4.8621   -1.0848 O.2       1 <0>        -0.4298
     28 O9          0.0501   -2.7328   -2.4012 O.3       1 <0>        -0.2729
     29 C19         0.0692   -1.9339   -3.5859 C.3       1 <0>         0.0153
     30 H2          1.0042    1.8801    0.0026 H         1 <0>         0.0912
     31 H3         -0.5455    1.8639   -0.8728 H         1 <0>         0.0888
     32 H4         -0.5286    1.8543    0.9071 H         1 <0>         0.0881
     33 H5         -0.0015   -0.1384   -2.1253 H         1 <0>         0.1540
     34 H6         -0.9473   -6.2932    3.8847 H         1 <0>         0.4021
     35 H7          3.5425   -2.6775    7.1238 H         1 <0>         0.4095
     36 H8          2.6389    0.1578    5.9803 H         1 <0>         0.0843
     37 H9          4.2085   -0.4884    5.4447 H         1 <0>         0.0880
     38 H10         3.1930    0.4352    4.3117 H         1 <0>         0.0828
     39 H11        -0.0270   -4.8177    0.9018 H         1 <0>         0.1057
     40 H12        -0.8258   -1.3126   -3.6196 H         1 <0>         0.0654
     41 H13         0.9537   -1.2970   -3.5805 H         1 <0>         0.0652
     42 H14         0.0941   -2.5829   -4.4613 H         1 <0>         0.1128
@<TRIPOS>BOND
     1    1    2 1
     2    1   30 1
     3    1   31 1
     4    1   32 1
     5    2    7 ar
     6    2    3 ar
     7    3    4 ar
     8    3   33 1
     9    4    5 ar
    10    4   28 1
    11    5    6 ar
    12    5   26 1
    13    6   17 1
    14    6    7 ar
    15    7    8 1
    16    8    9 2
    17    8   10 1
    18   10   11 1
    19   11   16 ar
    20   11   12 ar
    21   12   13 ar
    22   12   25 1
    23   13   14 ar
    24   13   24 1
    25   14   21 1
    26   14   15 ar
    27   15   16 ar
    28   15   18 1
    29   16   17 1
    30   18   19 1
    31   18   20 1
    32   18   23 1
    33   20   21 1
    34   21   22 2
    35   23   34 1
    36   24   35 1
    37   25   36 1
    38   25   37 1
    39   25   38 1
    40   26   27 2
    41   26   39 1
    42   28   29 1
    43   29   40 1
    44   29   41 1
    45   29   42 1
@<TRIPOS>MOLECULE
ZINC01562124
   41    44     0     0     0
SMALL
USER_CHARGES

@<TRIPOS>ATOM
      1 C1         -0.0184    1.5028    0.0103 C.3       1 <0>        -0.1380
      2 C2          0.0021   -0.0041    0.0020 C.ar      1 <0>         0.0638
      3 C3          0.0058   -0.6879   -1.1956 C.ar      1 <0>        -0.2510
      4 C4          0.0184   -2.0760   -1.2173 C.ar      1 <0>         0.2332
      5 C5         -0.0022   -2.8031   -0.0107 C.ar      1 <0>        -0.2491
      6 C6         -0.0144   -2.1077    1.2044 C.ar      1 <0>         0.2432
      7 C7          0.0231   -0.7094    1.2066 C.ar      1 <0>        -0.2650
      8 C8          0.1502   -0.0145    2.4977 C.2       1 <0>         0.5573
      9 O1         -0.7088    0.7605    2.8696 O.2       1 <0>        -0.4274
     10 O2          1.2304   -0.2516    3.2576 O.3       1 <0>        -0.3008
     11 C9          1.5089   -1.4970    3.7310 C.ar      1 <0>         0.1614
     12 C10         2.5105   -1.5483    4.7047 C.ar      1 <0>        -0.2012
     13 C11         2.8937   -2.7460    5.2749 C.ar      1 <0>         0.3511
     14 C12         2.2660   -3.9311    4.8688 C.ar      1 <0>        -0.3231
     15 C13         1.2666   -3.8725    3.8945 C.ar      1 <0>        -0.0288
     16 C14         0.8862   -2.6665    3.3253 C.ar      1 <0>        -0.0506
     17 O3         -0.1008   -2.7384    2.3892 O.3       1 <0>        -0.2509
     18 C15         0.8011   -5.2912    3.6836 C.3       1 <0>         0.3085
     19 H1          0.9734   -5.5911    2.6499 H         1 <0>         0.1086
     20 O4          1.5737   -6.1096    4.5668 O.3       1 <0>        -0.3580
     21 C16         2.4277   -5.3372    5.2610 C.2       1 <0>         0.5384
     22 O5          3.2171   -5.7428    6.0913 O.2       1 <0>        -0.4545
     23 O6         -0.5879   -5.4029    4.0004 O.3       1 <0>        -0.5341
     24 O7          3.8684   -2.7751    6.2186 O.3       1 <0>        -0.6419
     25 C17         3.1843   -0.2727    5.1405 C.3       1 <0>        -0.0765
     26 C18        -0.0112   -4.2673   -0.0272 C.2       1 <0>         0.3913
     27 O8         -0.0009   -4.8621   -1.0848 O.2       1 <0>        -0.4479
     28 O9          0.0501   -2.7328   -2.4012 O.3       1 <0>        -0.2773
     29 C19         0.0692   -1.9339   -3.5859 C.3       1 <0>         0.0186
     30 H2          1.0042    1.8801    0.0026 H         1 <0>         0.0864
     31 H3         -0.5455    1.8639   -0.8728 H         1 <0>         0.0813
     32 H4         -0.5286    1.8543    0.9071 H         1 <0>         0.0873
     33 H5         -0.0015   -0.1384   -2.1253 H         1 <0>         0.1454
     34 H6         -0.9473   -6.2932    3.8847 H         1 <0>         0.3857
     35 H7          2.6389    0.1578    5.9803 H         1 <0>         0.0560
     36 H8          4.2085   -0.4884    5.4447 H         1 <0>         0.0712
     37 H9          3.1930    0.4352    4.3117 H         1 <0>         0.0530
     38 H10        -0.0270   -4.8177    0.9018 H         1 <0>         0.1065
     39 H11         0.0941   -2.5829   -4.4613 H         1 <0>         0.1062
     40 H12        -0.8258   -1.3126   -3.6196 H         1 <0>         0.0606
     41 H13         0.9537   -1.2970   -3.5805 H         1 <0>         0.0612
@<TRIPOS>BOND
     1    1    2 1
     2    1   30 1
     3    1   31 1
     4    1   32 1
     5    2    7 ar
     6    2    3 ar
     7    3    4 ar
     8    3   33 1
     9    4    5 ar
    10    4   28 1
    11    5    6 ar
    12    5   26 1
    13    6   17 1
    14    6    7 ar
    15    7    8 1
    16    8    9 2
    17    8   10 1
    18   10   11 1
    19   11   16 ar
    20   11   12 ar
    21   12   13 ar
    22   12   25 1
    23   13   14 ar
    24   13   24 1
    25   14   21 1
    26   14   15 ar
    27   15   16 ar
    28   15   18 1
    29   16   17 1
    30   18   19 1
    31   18   20 1
    32   18   23 1
    33   20   21 1
    34   21   22 2
    35   23   34 1
    36   25   35 1
    37   25   36 1
    38   25   37 1
    39   26   27 2
    40   26   38 1
    41   28   29 1
    42   29   39 1
    43   29   40 1
    44   29   41 1
@<TRIPOS>MOLECULE
ZINC02004083
   42    45     0     0     0
SMALL
USER_CHARGES

@<TRIPOS>ATOM
      1 C1         -0.0184    1.5028    0.0103 C.3       1 <0>        -0.1416
      2 C2          0.0021   -0.0041    0.0020 C.ar      1 <0>         0.0663
      3 C3          0.0058   -0.6879   -1.1956 C.ar      1 <0>        -0.2360
      4 C4          0.0193   -2.0760   -1.2173 C.ar      1 <0>         0.2369
      5 C5         -0.0013   -2.8031   -0.0107 C.ar      1 <0>        -0.2313
      6 C6         -0.0144   -2.1077    1.2044 C.ar      1 <0>         0.2256
      7 C7          0.0231   -0.7094    1.2066 C.ar      1 <0>        -0.2631
      8 C8          0.1502   -0.0145    2.4977 C.2       1 <0>         0.5530
      9 O1         -0.7088    0.7605    2.8696 O.2       1 <0>        -0.3990
     10 O2          1.2304   -0.2516    3.2576 O.3       1 <0>        -0.2927
     11 C9          1.5089   -1.4970    3.7310 C.ar      1 <0>         0.1538
     12 C10         2.5105   -1.5483    4.7047 C.ar      1 <0>        -0.1036
     13 C11         2.8943   -2.7461    5.2743 C.ar      1 <0>         0.2210
     14 C12         2.2667   -3.9312    4.8682 C.ar      1 <0>        -0.2046
     15 C13         1.2666   -3.8725    3.8945 C.ar      1 <0>        -0.0663
     16 C14         0.8862   -2.6665    3.3253 C.ar      1 <0>         0.0785
     17 O3         -0.1008   -2.7385    2.3891 O.3       1 <0>        -0.2524
     18 C15         0.8012   -5.2912    3.6834 C.3       1 <0>         0.3081
     19 H1         -0.2578   -5.3770    3.9265 H         1 <0>         0.1365
     20 O4          1.5746   -6.1098    4.5659 O.3       1 <0>        -0.3303
     21 C16         2.4289   -5.3374    5.2598 C.2       1 <0>         0.5393
     22 O5          3.2189   -5.7431    6.0895 O.2       1 <0>        -0.4223
     23 O6          1.0253   -5.6835    2.3277 O.3       1 <0>        -0.5355
     24 O7          3.8696   -2.7753    6.2173 O.3       1 <0>        -0.4690
     25 C17         3.1843   -0.2727    5.1405 C.3       1 <0>        -0.1119
     26 C18        -0.0093   -4.2673   -0.0273 C.2       1 <0>         0.3781
     27 O8          0.0018   -4.8621   -1.0848 O.2       1 <0>        -0.4381
     28 O9          0.0519   -2.7327   -2.4012 O.3       1 <0>        -0.2723
     29 C19         0.0709   -1.9339   -3.5859 C.3       1 <0>         0.0153
     30 H2          1.0042    1.8801    0.0026 H         1 <0>         0.0904
     31 H3         -0.5455    1.8639   -0.8728 H         1 <0>         0.0882
     32 H4         -0.5286    1.8543    0.9071 H         1 <0>         0.0876
     33 H5         -0.0015   -0.1384   -2.1253 H         1 <0>         0.1532
     34 H6          0.7463   -6.5877    2.1287 H         1 <0>         0.4048
     35 H7          3.5443   -2.6780    7.1227 H         1 <0>         0.4089
     36 H8          2.6389    0.1578    5.9803 H         1 <0>         0.0843
     37 H9          4.2085   -0.4884    5.4447 H         1 <0>         0.0878
     38 H10         3.1930    0.4352    4.3117 H         1 <0>         0.0827
     39 H11        -0.0251   -4.8178    0.9018 H         1 <0>         0.1281
     40 H12        -0.8244   -1.3131   -3.6199 H         1 <0>         0.0648
     41 H13         0.9550   -1.2964   -3.5801 H         1 <0>         0.0645
     42 H14         0.0966   -2.5828   -4.4613 H         1 <0>         0.1124
@<TRIPOS>BOND
     1    1    2 1
     2    1   30 1
     3    1   31 1
     4    1   32 1
     5    2    7 ar
     6    2    3 ar
     7    3    4 ar
     8    3   33 1
     9    4    5 ar
    10    4   28 1
    11    5    6 ar
    12    5   26 1
    13    6   17 1
    14    6    7 ar
    15    7    8 1
    16    8    9 2
    17    8   10 1
    18   10   11 1
    19   11   16 ar
    20   11   12 ar
    21   12   13 ar
    22   12   25 1
    23   13   14 ar
    24   13   24 1
    25   14   21 1
    26   14   15 ar
    27   15   16 ar
    28   15   18 1
    29   16   17 1
    30   18   19 1
    31   18   20 1
    32   18   23 1
    33   20   21 1
    34   21   22 2
    35   23   34 1
    36   24   35 1
    37   25   36 1
    38   25   37 1
    39   25   38 1
    40   26   27 2
    41   26   39 1
    42   28   29 1
    43   29   40 1
    44   29   41 1
    45   29   42 1
@<TRIPOS>MOLECULE
ZINC02004083
   41    44     0     0     0
SMALL
USER_CHARGES

@<TRIPOS>ATOM
      1 C1         -0.0184    1.5028    0.0103 C.3       1 <0>        -0.1371
      2 C2          0.0021   -0.0041    0.0020 C.ar      1 <0>         0.0603
      3 C3          0.0058   -0.6879   -1.1956 C.ar      1 <0>        -0.2505
      4 C4          0.0193   -2.0760   -1.2173 C.ar      1 <0>         0.2292
      5 C5         -0.0013   -2.8031   -0.0107 C.ar      1 <0>        -0.2444
      6 C6         -0.0144   -2.1077    1.2044 C.ar      1 <0>         0.2446
      7 C7          0.0231   -0.7094    1.2066 C.ar      1 <0>        -0.2662
      8 C8          0.1502   -0.0145    2.4977 C.2       1 <0>         0.5579
      9 O1         -0.7088    0.7605    2.8696 O.2       1 <0>        -0.4289
     10 O2          1.2304   -0.2516    3.2576 O.3       1 <0>        -0.3011
     11 C9          1.5089   -1.4970    3.7310 C.ar      1 <0>         0.1620
     12 C10         2.5105   -1.5483    4.7047 C.ar      1 <0>        -0.2023
     13 C11         2.8943   -2.7461    5.2743 C.ar      1 <0>         0.3509
     14 C12         2.2667   -3.9312    4.8682 C.ar      1 <0>        -0.3224
     15 C13         1.2666   -3.8725    3.8945 C.ar      1 <0>        -0.0287
     16 C14         0.8862   -2.6665    3.3253 C.ar      1 <0>        -0.0516
     17 O3         -0.1008   -2.7385    2.3891 O.3       1 <0>        -0.2567
     18 C15         0.8012   -5.2912    3.6834 C.3       1 <0>         0.3091
     19 H1         -0.2578   -5.3770    3.9265 H         1 <0>         0.1166
     20 O4          1.5746   -6.1098    4.5659 O.3       1 <0>        -0.3571
     21 C16         2.4289   -5.3374    5.2598 C.2       1 <0>         0.5385
     22 O5          3.2189   -5.7431    6.0895 O.2       1 <0>        -0.4548
     23 O6          1.0253   -5.6835    2.3277 O.3       1 <0>        -0.5403
     24 O7          3.8696   -2.7753    6.2173 O.3       1 <0>        -0.6423
     25 C17         3.1843   -0.2727    5.1405 C.3       1 <0>        -0.0764
     26 C18        -0.0093   -4.2673   -0.0273 C.2       1 <0>         0.3838
     27 O8          0.0018   -4.8621   -1.0848 O.2       1 <0>        -0.4563
     28 O9          0.0519   -2.7327   -2.4012 O.3       1 <0>        -0.2767
     29 C19         0.0709   -1.9339   -3.5859 C.3       1 <0>         0.0186
     30 H2          1.0042    1.8801    0.0026 H         1 <0>         0.0855
     31 H3         -0.5455    1.8639   -0.8728 H         1 <0>         0.0807
     32 H4         -0.5286    1.8543    0.9071 H         1 <0>         0.0867
     33 H5         -0.0015   -0.1384   -2.1253 H         1 <0>         0.1445
     34 H6          0.7463   -6.5877    2.1287 H         1 <0>         0.3887
     35 H7          2.6389    0.1578    5.9803 H         1 <0>         0.0559
     36 H8          4.2085   -0.4884    5.4447 H         1 <0>         0.0710
     37 H9          3.1930    0.4352    4.3117 H         1 <0>         0.0528
     38 H10        -0.0251   -4.8178    0.9018 H         1 <0>         0.1302
     39 H11         0.0966   -2.5828   -4.4613 H         1 <0>         0.1057
     40 H12        -0.8244   -1.3131   -3.6199 H         1 <0>         0.0599
     41 H13         0.9550   -1.2964   -3.5801 H         1 <0>         0.0605
@<TRIPOS>BOND
     1    1    2 1
     2    1   30 1
     3    1   31 1
     4    1   32 1
     5    2    7 ar
     6    2    3 ar
     7    3    4 ar
     8    3   33 1
     9    4    5 ar
    10    4   28 1
    11    5    6 ar
    12    5   26 1
    13    6   17 1
    14    6    7 ar
    15    7    8 1
    16    8    9 2
    17    8   10 1
    18   10   11 1
    19   11   16 ar
    20   11   12 ar
    21   12   13 ar
    22   12   25 1
    23   13   14 ar
    24   13   24 1
    25   14   21 1
    26   14   15 ar
    27   15   16 ar
    28   15   18 1
    29   16   17 1
    30   18   19 1
    31   18   20 1
    32   18   23 1
    33   20   21 1
    34   21   22 2
    35   23   34 1
    36   25   35 1
    37   25   36 1
    38   25   37 1
    39   26   27 2
    40   26   38 1
    41   28   29 1
    42   29   39 1
    43   29   40 1
    44   29   41 1
@<TRIPOS>MOLECULE
ZINC01628592
   37    37     0     0     0
SMALL
USER_CHARGES
3-[[3,5-bis(hydroxymethyl)-2,4,6-trioxo-1,3,5-triazinan-1-yl]methoxymethyl]-1-(hydroxymethyl)urea
@<TRIPOS>ATOM
      1 C1         -2.8257    1.4018   -4.7564 C.3       1 <0>         0.3143
      2 N1         -1.9610    2.1940   -3.8783 N.am      1 <0>        -0.7334
      3 C2         -1.9376    1.9464   -2.5537 C.2       1 <0>         0.7133
      4 O1         -2.6341    1.0655   -2.0875 O.2       1 <0>        -0.5692
      5 N2         -1.1421    2.6751   -1.7459 N.am      1 <0>        -0.7554
      6 C3         -1.1166    2.4060   -0.3061 C.3       1 <0>         0.2809
      7 O2         -0.0352    1.5214   -0.0059 O.3       1 <0>        -0.3688
      8 C4          1.2355    2.1681    0.0893 C.3       1 <0>         0.2794
      9 N3          1.7605    2.4137   -1.2562 N.am      1 <0>        -0.5754
     10 C5          2.2571    1.3928   -1.9824 C.2       1 <0>         0.7078
     11 O3          2.2694    0.2686   -1.5213 O.2       1 <0>        -0.4859
     12 N4          2.7358    1.6179   -3.2221 N.am      1 <0>        -0.5573
     13 C6          2.7268    2.8656   -3.7316 C.2       1 <0>         0.7067
     14 O4          3.1622    3.0692   -4.8476 O.2       1 <0>        -0.4844
     15 N5          2.2352    3.8874   -3.0032 N.am      1 <0>        -0.5591
     16 C7          1.7518    3.6615   -1.7655 C.2       1 <0>         0.7028
     17 O5          1.3087    4.5828   -1.1088 O.2       1 <0>        -0.5076
     18 C8          2.2258    5.2437   -3.5569 C.3       1 <0>         0.3121
     19 O6          3.5508    5.7784   -3.5300 O.3       1 <0>        -0.5754
     20 C9          3.2705    0.5072   -4.0137 C.3       1 <0>         0.3146
     21 O7          4.6976    0.5790   -4.0320 O.3       1 <0>        -0.5769
     22 O8         -4.0635    2.0887   -4.9519 O.3       1 <0>        -0.5936
     23 H1         -2.3335    1.2590   -5.7184 H         1 <0>         0.0706
     24 H2         -3.0171    0.4313   -4.2986 H         1 <0>         0.0790
     25 H3         -1.4054    2.8967   -4.2503 H         1 <0>         0.3972
     26 H4         -0.5864    3.3778   -2.1179 H         1 <0>         0.3863
     27 H5         -2.0575    1.9446   -0.0060 H         1 <0>         0.1336
     28 H6         -0.9817    3.3419    0.2362 H         1 <0>         0.0894
     29 H7          1.1219    3.1169    0.6138 H         1 <0>         0.1148
     30 H8          1.9277    1.5300    0.6386 H         1 <0>         0.1400
     31 H9          1.8669    5.2137   -4.5857 H         1 <0>         0.0922
     32 H10         1.5671    5.8751   -2.9605 H         1 <0>         0.1039
     33 H11         3.6199    6.6761   -3.8826 H         1 <0>         0.4070
     34 H12         2.9600   -0.4384   -3.5692 H         1 <0>         0.1035
     35 H13         2.8904    0.5716   -5.0332 H         1 <0>         0.0909
     36 H14         5.1205   -0.1273   -4.5393 H         1 <0>         0.4065
     37 H15        -4.6866    1.6210   -5.5246 H         1 <0>         0.3956
@<TRIPOS>BOND
     1    1    2 1
     2    1   22 1
     3    1   23 1
     4    1   24 1
     5    2    3 am
     6    2   25 1
     7    3    4 2
     8    3    5 am
     9    5    6 1
    10    5   26 1
    11    6    7 1
    12    6   27 1
    13    6   28 1
    14    7    8 1
    15    8    9 1
    16    8   29 1
    17    8   30 1
    18    9   16 am
    19    9   10 am
    20   10   11 2
    21   10   12 am
    22   12   13 am
    23   12   20 1
    24   13   14 2
    25   13   15 am
    26   15   16 am
    27   15   18 1
    28   16   17 2
    29   18   19 1
    30   18   31 1
    31   18   32 1
    32   19   33 1
    33   20   21 1
    34   20   34 1
    35   20   35 1
    36   21   36 1
    37   22   37 1
@<TRIPOS>MOLECULE
ZINC05138927
   20    20     0     0     0
SMALL
USER_CHARGES
3,4,5-trihydroxybenzenecarbohydroxamic acid
@<TRIPOS>ATOM
      1 C1         -0.0126    1.0758    0.0080 C.ar      1 <0>        -0.0741
      2 C2         -1.2314    1.7584    0.0174 C.ar      1 <0>        -0.1020
      3 C3         -1.2469    3.1553    0.0310 C.ar      1 <0>        -0.1087
      4 C4         -0.0569    3.8586    0.0239 C.ar      1 <0>         0.0938
      5 C5          1.1565    3.1759    0.0081 C.ar      1 <0>         0.0866
      6 C6          1.1747    1.7838    0.0004 C.ar      1 <0>         0.0955
      7 O1          2.3615    1.1199   -0.0150 O.3       1 <0>        -0.4784
      8 O2          2.3250    3.8696    0.0007 O.3       1 <0>        -0.4725
      9 O3         -0.0713    5.2185    0.0318 O.3       1 <0>        -0.4800
     10 C7         -2.5008    1.0049    0.0193 C.2       1 <0>         0.5747
     11 O4         -2.4861   -0.2108    0.0125 O.2       1 <0>        -0.5081
     12 N1         -3.6760    1.6646    0.0284 N.am      1 <0>        -0.5917
     13 O5         -4.8936    0.9418    0.0302 O.3       1 <0>        -0.3098
     14 H1          0.0021   -0.0041    0.0020 H         1 <0>         0.1553
     15 H2         -2.1879    3.6853    0.0425 H         1 <0>         0.1407
     16 H3          2.6962    0.9329   -0.9028 H         1 <0>         0.3944
     17 H4          2.6547    4.0752   -0.8848 H         1 <0>         0.3912
     18 H5         -0.0841    5.6169   -0.8492 H         1 <0>         0.3932
     19 H6         -3.6878    2.6345    0.0338 H         1 <0>         0.4086
     20 H7         -5.6828    1.5006    0.0370 H         1 <0>         0.3915
@<TRIPOS>BOND
     1    1    6 ar
     2    1    2 ar
     3    1   14 1
     4    2    3 ar
     5    2   10 1
     6    3    4 ar
     7    3   15 1
     8    4    5 ar
     9    4    9 1
    10    5    6 ar
    11    5    8 1
    12    6    7 1
    13    7   16 1
    14    8   17 1
    15    9   18 1
    16   10   11 2
    17   10   12 am
    18   12   13 1
    19   12   19 1
    20   13   20 1
@<TRIPOS>MOLECULE
ZINC04015433
   29    31     0     0     0
SMALL
USER_CHARGES

@<TRIPOS>ATOM
      1 C1         -0.0184    1.5028    0.0103 C.3       1 <0>        -0.1362
      2 C2          0.0021   -0.0041    0.0020 C.2       1 <0>         0.0448
      3 C3         -1.1992   -0.7421    0.0037 C.ar      1 <0>        -0.1398
      4 C4         -2.4372   -0.0715    0.0129 C.ar      1 <0>        -0.0680
      5 C5         -3.5984   -0.7877    0.0140 C.ar      1 <0>         0.0659
      6 C6         -3.5656   -2.1885    0.0065 C.ar      1 <0>         0.1521
      7 C7         -2.3581   -2.8632   -0.0026 C.ar      1 <0>        -0.1528
      8 C8         -1.1641   -2.1530   -0.0044 C.ar      1 <0>         0.1542
      9 O1          0.0095   -2.8204   -0.0138 O.3       1 <0>        -0.2010
     10 C9          1.1871   -2.1653   -0.0156 C.2       1 <0>         0.1993
     11 C10         2.3824   -2.8537   -0.0261 C.2       1 <0>        -0.2952
     12 C11         3.5896   -2.1469   -0.0281 C.2       1 <0>         0.3888
     13 O2          4.6488   -2.7621   -0.0378 O.2       1 <0>        -0.4896
     14 C12         3.6055   -0.7323   -0.0196 C.2       1 <0>         0.0487
     15 C13         2.4486   -0.0222   -0.0088 C.2       1 <0>        -0.1197
     16 C14         1.2100   -0.7017   -0.0133 C.2       1 <0>        -0.1271
     17 O3          4.7959   -0.0749   -0.0218 O.3       1 <0>        -0.4622
     18 O4         -4.7279   -2.8888    0.0086 O.3       1 <0>        -0.4773
     19 O5         -4.7936   -0.1388    0.0229 O.3       1 <0>        -0.4801
     20 H1          1.0042    1.8801    0.0026 H         1 <0>         0.0889
     21 H2         -0.5455    1.8639   -0.8728 H         1 <0>         0.0931
     22 H3         -0.5286    1.8543    0.9071 H         1 <0>         0.0938
     23 H4         -2.4675    1.0080    0.0194 H         1 <0>         0.1548
     24 H5         -2.3435   -3.9431   -0.0080 H         1 <0>         0.1586
     25 H6          2.3862   -3.9337   -0.0323 H         1 <0>         0.1531
     26 H7          2.4750    1.0574   -0.0017 H         1 <0>         0.1508
     27 H8          5.5673   -0.6580   -0.0293 H         1 <0>         0.4081
     28 H9         -5.0691   -3.0872   -0.8742 H         1 <0>         0.4010
     29 H10        -5.1432    0.0538   -0.8579 H         1 <0>         0.3929
@<TRIPOS>BOND
     1    1    2 1
     2    1   20 1
     3    1   21 1
     4    1   22 1
     5    2   16 2
     6    2    3 1
     7    3    8 ar
     8    3    4 ar
     9    4    5 ar
    10    4   23 1
    11    5    6 ar
    12    5   19 1
    13    6    7 ar
    14    6   18 1
    15    7    8 ar
    16    7   24 1
    17    8    9 1
    18    9   10 1
    19   10   16 1
    20   10   11 2
    21   11   12 1
    22   11   25 1
    23   12   13 2
    24   12   14 1
    25   14   15 2
    26   14   17 1
    27   15   16 1
    28   15   26 1
    29   17   27 1
    30   18   28 1
    31   19   29 1
@<TRIPOS>MOLECULE
ZINC01598047
   39    41     0     0     0
SMALL
USER_CHARGES

@<TRIPOS>ATOM
      1 C1          0.8011    1.0997   -1.3969 C.3       1 <0>        -0.1344
      2 C2          0.7851   -0.3926   -1.1876 C.ar      1 <0>         0.0345
      3 C3          0.9831   -1.2412   -2.2565 C.ar      1 <0>        -0.1840
      4 C4          0.9644   -2.6179   -2.0784 C.ar      1 <0>         0.2185
      5 C5          0.7095   -3.1637   -0.8050 C.ar      1 <0>        -0.2308
      6 C6          0.4987   -2.3027    0.2782 C.ar      1 <0>         0.2188
      7 C7          0.5757   -0.9160    0.0886 C.ar      1 <0>        -0.2414
      8 C8          0.5016   -0.0444    1.2726 C.2       1 <0>         0.5607
      9 O1         -0.3724    0.7941    1.3733 O.2       1 <0>        -0.4183
     10 O2          1.4197   -0.1968    2.2374 O.3       1 <0>        -0.3072
     11 C9          1.5405   -1.3505    2.9456 C.ar      1 <0>         0.1257
     12 C10         2.3000   -1.2636    4.1127 C.ar      1 <0>        -0.1320
     13 C11         2.5123   -2.3725    4.9152 C.ar      1 <0>         0.1460
     14 C12         1.9675   -3.5922    4.5615 C.ar      1 <0>        -0.1742
     15 C13         1.2011   -3.6928    3.4005 C.ar      1 <0>        -0.0542
     16 C14         0.9781   -2.5598    2.5867 C.ar      1 <0>         0.0250
     17 O3          0.1813   -2.7581    1.5030 O.3       1 <0>        -0.2327
     18 C15         0.6202   -4.9906    3.0197 C.2       1 <0>         0.5255
     19 O4         -0.5751   -5.0773    2.7738 O.co2     1 <0>        -0.6575
     20 O5          1.3326   -5.9826    2.9491 O.co2     1 <0>        -0.6753
     21 O6          3.2556   -2.2612    6.0483 O.3       1 <0>        -0.3106
     22 C16         3.4328   -3.4462    6.8270 C.3       1 <0>         0.0247
     23 C17         2.9008    0.0609    4.5073 C.3       1 <0>        -0.0901
     24 C18         0.6652   -4.6153   -0.6168 C.2       1 <0>         0.3869
     25 O7          0.7557   -5.3544   -1.5749 O.2       1 <0>        -0.4492
     26 O8          1.1913   -3.4383   -3.1318 O.3       1 <0>        -0.4723
     27 H1          1.8180    1.4728   -1.2756 H         1 <0>         0.0839
     28 H2          0.4472    1.3295   -2.4019 H         1 <0>         0.0830
     29 H3          0.1495    1.5763   -0.6644 H         1 <0>         0.0854
     30 H4          1.1546   -0.8311   -3.2408 H         1 <0>         0.1477
     31 H5          2.1343   -4.4619    5.1798 H         1 <0>         0.1444
     32 H6          3.9299   -4.2062    6.2241 H         1 <0>         0.0600
     33 H7          4.0435   -3.2189    7.7008 H         1 <0>         0.0994
     34 H8          2.4603   -3.8175    7.1500 H         1 <0>         0.0584
     35 H9          2.1977    0.6055    5.1375 H         1 <0>         0.0668
     36 H10         3.8258   -0.1094    5.0582 H         1 <0>         0.0708
     37 H11         3.1135    0.6446    3.6117 H         1 <0>         0.0671
     38 H12         0.5518   -5.0280    0.3748 H         1 <0>         0.1295
     39 H13         2.1225   -3.6654   -3.2600 H         1 <0>         0.4015
@<TRIPOS>BOND
     1    1    2 1
     2    1   27 1
     3    1   28 1
     4    1   29 1
     5    2    7 ar
     6    2    3 ar
     7    3    4 ar
     8    3   30 1
     9    4    5 ar
    10    4   26 1
    11    5    6 ar
    12    5   24 1
    13    6   17 1
    14    6    7 ar
    15    7    8 1
    16    8    9 2
    17    8   10 1
    18   10   11 1
    19   11   16 ar
    20   11   12 ar
    21   12   13 ar
    22   12   23 1
    23   13   14 ar
    24   13   21 1
    25   14   15 ar
    26   14   31 1
    27   15   16 ar
    28   15   18 1
    29   16   17 1
    30   18   19 2
    31   18   20 1
    32   21   22 1
    33   22   32 1
    34   22   33 1
    35   22   34 1
    36   23   35 1
    37   23   36 1
    38   23   37 1
    39   24   25 2
    40   24   38 1
    41   26   39 1
@<TRIPOS>MOLECULE
ZINC13556374
   60    62     0     0     0
SMALL
USER_CHARGES

@<TRIPOS>ATOM
      1 C1         -0.0169    1.3952    0.0097 C.ar      1 <0>        -0.0882
      2 C2          1.1671    2.0997    0.0022 C.ar      1 <0>        -0.1310
      3 C3          2.3804    1.4252   -0.0130 C.ar      1 <0>         0.0901
      4 C4          2.4077    0.0306   -0.0212 C.ar      1 <0>         0.0765
      5 C5          1.2264   -0.6835   -0.0138 C.ar      1 <0>        -0.1047
      6 C6          0.0021   -0.0041    0.0020 C.ar      1 <0>        -0.0634
      7 C7         -1.2592   -0.7582    0.0105 C.2       1 <0>        -0.0161
      8 C8         -2.4393   -0.1007    0.0257 C.2       1 <0>        -0.1738
      9 C9         -3.6561   -0.8283    0.0339 C.2       1 <0>         0.5027
     10 O1         -3.6375   -2.0447    0.0272 O.2       1 <0>        -0.5218
     11 O2         -4.8347   -0.1717    0.0492 O.3       1 <0>        -0.3045
     12 C10        -6.0211   -0.9682    0.0567 C.3       1 <0>         0.1058
     13 H1         -5.8216   -1.9124    0.5635 H         1 <0>         0.0921
     14 C11        -6.4589   -1.2447   -1.3831 C.3       1 <0>        -0.1056
     15 C12        -6.7389    0.0806   -2.0945 C.3       1 <0>         0.0704
     16 C13        -7.8514    0.8296   -1.3581 C.3       1 <0>        -0.1564
     17 C14        -7.4136    1.1061    0.0816 C.3       1 <0>         0.0966
     18 H2         -6.5087    1.7137    0.0759 H         1 <0>         0.0774
     19 C15        -7.1336   -0.2192    0.7930 C.3       1 <0>         0.1100
     20 H3         -8.0386   -0.8268    0.7987 H         1 <0>         0.1060
     21 O3         -6.7248    0.0391    2.1377 O.3       1 <0>        -0.3385
     22 C16        -7.6961    0.0998    3.0723 C.2       1 <0>         0.4965
     23 O4         -8.8586   -0.0623    2.7529 O.2       1 <0>        -0.4905
     24 C17        -7.3618    0.3527    4.4267 C.2       1 <0>        -0.1841
     25 C18        -8.3343    0.4135    5.3625 C.2       1 <0>        -0.0094
     26 C19        -7.9877    0.6756    6.7664 C.ar      1 <0>        -0.0668
     27 C20        -6.6513    0.8681    7.1354 C.ar      1 <0>        -0.0892
     28 C21        -6.3293    1.1135    8.4519 C.ar      1 <0>        -0.1315
     29 C22        -7.3275    1.1706    9.4156 C.ar      1 <0>         0.0921
     30 C23        -8.6613    0.9798    9.0561 C.ar      1 <0>         0.0775
     31 C24        -8.9938    0.7390    7.7377 C.ar      1 <0>        -0.1032
     32 O5         -9.6355    1.0366   10.0033 O.3       1 <0>        -0.4863
     33 O6         -7.0038    1.4125   10.7123 O.3       1 <0>        -0.4874
     34 O7         -8.4527    1.8057    0.7694 O.3       1 <0>        -0.5613
     35 C25        -7.1700   -0.1918   -3.5126 C.2       1 <0>         0.4782
     36 O8         -8.1674   -0.8588   -3.7290 O.co2     1 <0>        -0.6902
     37 O9         -6.5214    0.2548   -4.4434 O.co2     1 <0>        -0.6835
     38 O10        -5.5525    0.8771   -2.1020 O.3       1 <0>        -0.5409
     39 O11         3.5987   -0.6259   -0.0370 O.3       1 <0>        -0.4863
     40 O12         3.5442    2.1252   -0.0204 O.3       1 <0>        -0.4872
     41 H4         -0.9592    1.9225    0.0260 H         1 <0>         0.1411
     42 H5          1.1513    3.1796    0.0078 H         1 <0>         0.1384
     43 H6          1.2463   -1.7633   -0.0201 H         1 <0>         0.1404
     44 H7         -1.2427   -1.8381    0.0045 H         1 <0>         0.1410
     45 H8         -2.4557    0.9791    0.0317 H         1 <0>         0.1418
     46 H9         -5.6663   -1.7783   -1.9077 H         1 <0>         0.0816
     47 H10        -7.3638   -1.8523   -1.3773 H         1 <0>         0.0982
     48 H11        -8.0508    1.7737   -1.8649 H         1 <0>         0.0680
     49 H12        -8.7563    0.2220   -1.3524 H         1 <0>         0.0837
     50 H13        -6.3297    0.4966    4.7104 H         1 <0>         0.1394
     51 H14        -9.3664    0.2695    5.0789 H         1 <0>         0.1427
     52 H15        -5.8728    0.8239    6.3881 H         1 <0>         0.1397
     53 H16        -5.2978    1.2616    8.7355 H         1 <0>         0.1387
     54 H17       -10.0268    0.5955    7.4574 H         1 <0>         0.1413
     55 H18       -10.0034    1.9209   10.1366 H         1 <0>         0.3883
     56 H19        -6.9960    2.3505   10.9473 H         1 <0>         0.3893
     57 H20        -8.6831    2.6569    0.3727 H         1 <0>         0.3752
     58 H21        -5.6567    1.7339   -2.5381 H         1 <0>         0.3665
     59 H22         3.9520   -0.8208    0.8417 H         1 <0>         0.3868
     60 H23         3.8897    2.3232    0.8608 H         1 <0>         0.3877
@<TRIPOS>BOND
     1    1    6 ar
     2    1    2 ar
     3    1   41 1
     4    2    3 ar
     5    2   42 1
     6    3    4 ar
     7    3   40 1
     8    4    5 ar
     9    4   39 1
    10    5    6 ar
    11    5   43 1
    12    6    7 1
    13    7    8 2
    14    7   44 1
    15    8    9 1
    16    8   45 1
    17    9   10 2
    18    9   11 1
    19   11   12 1
    20   12   13 1
    21   12   19 1
    22   12   14 1
    23   14   15 1
    24   14   46 1
    25   14   47 1
    26   15   16 1
    27   15   35 1
    28   15   38 1
    29   16   17 1
    30   16   48 1
    31   16   49 1
    32   17   18 1
    33   17   19 1
    34   17   34 1
    35   19   20 1
    36   19   21 1
    37   21   22 1
    38   22   23 2
    39   22   24 1
    40   24   25 2
    41   24   50 1
    42   25   26 1
    43   25   51 1
    44   26   31 ar
    45   26   27 ar
    46   27   28 ar
    47   27   52 1
    48   28   29 ar
    49   28   53 1
    50   29   30 ar
    51   29   33 1
    52   30   31 ar
    53   30   32 1
    54   31   54 1
    55   32   55 1
    56   33   56 1
    57   34   57 1
    58   35   36 2
    59   35   37 1
    60   38   58 1
    61   39   59 1
    62   40   60 1
@<TRIPOS>MOLECULE
ZINC03918087
   69    73     0     0     0
SMALL
USER_CHARGES
(7S,9S)-7-[(2R,4S,5S,6S)-4-amino-5-hydroxy-6-methyl-tetrahydropyran-2-yl]oxy-6,9,11-trihydroxy-9-(2-hydroxyacetyl)-4-methoxy-8,10-dihydro-7H-tetracene-5,12-dione
@<TRIPOS>ATOM
      1 C1          0.5150    0.0942    7.2444 C.3       1 <0>        -0.1580
      2 C2          0.1900   -0.3014    5.8026 C.3       1 <0>         0.0587
      3 H1          1.1127   -0.3614    5.2254 H         1 <0>         0.0888
      4 C3         -0.5085   -1.6636    5.7921 C.3       1 <0>         0.0555
      5 H2          0.1643   -2.4212    6.1939 H         1 <0>         0.0935
      6 C4         -0.8843   -2.0248    4.3517 C.3       1 <0>         0.0407
      7 H3          0.0209   -2.1235    3.7526 H         1 <0>         0.1613
      8 C5         -1.7663   -0.9147    3.7721 C.3       1 <0>        -0.1574
      9 C6         -1.0192    0.4186    3.8607 C.3       1 <0>         0.2505
     10 H4         -1.6586    1.2192    3.4888 H         1 <0>         0.1282
     11 O1         -0.6723    0.6792    5.2222 O.3       1 <0>        -0.3651
     12 O2          0.1696    0.3521    3.0704 O.3       1 <0>        -0.3828
     13 C7          0.7875    1.6202    2.8423 C.3       1 <0>         0.1526
     14 H5          0.0364    2.4057    2.9245 H         1 <0>         0.0878
     15 C8          1.8713    1.8482    3.8936 C.3       1 <0>        -0.1239
     16 C9          2.6612    3.1042    3.5067 C.3       1 <0>         0.1037
     17 C10         3.4811    2.7902    2.2574 C.3       1 <0>        -0.0998
     18 C11         2.6090    2.1869    1.1864 C.ar      1 <0>        -0.0396
     19 C12         1.3765    1.6468    1.4552 C.ar      1 <0>        -0.0831
     20 C13         0.6155    1.0847    0.4217 C.ar      1 <0>         0.1754
     21 C14         1.0919    1.0819   -0.8875 C.ar      1 <0>        -0.1384
     22 C15         2.3535    1.6455   -1.1656 C.ar      1 <0>        -0.1258
     23 C16         3.1021    2.1926   -0.1251 C.ar      1 <0>         0.1594
     24 O3          4.3175    2.7354   -0.3842 O.3       1 <0>        -0.4706
     25 C17         2.8707    1.6513   -2.5448 C.2       1 <0>         0.4337
     26 O4          3.9582    2.1389   -2.7855 O.2       1 <0>        -0.4026
     27 C18         2.0646    1.0643   -3.6354 C.ar      1 <0>        -0.0823
     28 C19         2.5444    1.0651   -4.9411 C.ar      1 <0>        -0.1037
     29 C20         1.7841    0.5148   -5.9600 C.ar      1 <0>        -0.0521
     30 C21         0.5481   -0.0381   -5.6929 C.ar      1 <0>        -0.1899
     31 C22         0.0493   -0.0508   -4.3941 C.ar      1 <0>         0.1799
     32 C23         0.8055    0.5015   -3.3556 C.ar      1 <0>        -0.1650
     33 C24         0.2887    0.4960   -1.9751 C.2       1 <0>         0.4376
     34 O5         -0.7994    0.0089   -1.7342 O.2       1 <0>        -0.4060
     35 O6         -1.1652   -0.5961   -4.1364 O.3       1 <0>        -0.2855
     36 C25        -1.8803   -1.1413   -5.2470 C.3       1 <0>         0.0181
     37 O7         -0.5973    0.5440    0.6972 O.3       1 <0>        -0.4647
     38 C26         1.7077    4.2347    3.2174 C.2       1 <0>         0.3173
     39 O8          1.3555    4.4523    2.0830 O.2       1 <0>        -0.3991
     40 C27         1.1935    5.0937    4.3439 C.3       1 <0>         0.0415
     41 O9          0.3120    6.0889    3.8199 O.3       1 <0>        -0.5563
     42 O10         3.5348    3.4728    4.5758 O.3       1 <0>        -0.5342
     43 O11        -1.6907   -1.6002    6.5925 O.3       1 <0>        -0.5647
     44 H6         -0.4077    0.1538    7.8216 H         1 <0>         0.0713
     45 H7          1.1728   -0.6538    7.6870 H         1 <0>         0.0811
     46 H8          1.0115    1.0646    7.2518 H         1 <0>         0.0831
     47 H9         -2.6934   -0.8513    4.3418 H         1 <0>         0.1199
     48 H10        -1.9930   -1.1367    2.7293 H         1 <0>         0.1121
     49 H11         2.5404    0.9883    3.9239 H         1 <0>         0.0986
     50 H12         1.4112    1.9903    4.8714 H         1 <0>         0.0994
     51 H13         4.2726    2.0865    2.5147 H         1 <0>         0.1131
     52 H14         3.9280    3.7102    1.8805 H         1 <0>         0.0957
     53 H15         4.2898    3.6779   -0.5986 H         1 <0>         0.4022
     54 H16         3.5102    1.4955   -5.1607 H         1 <0>         0.1477
     55 H17         2.1617    0.5187   -6.9718 H         1 <0>         0.1448
     56 H18        -0.0349   -0.4635   -6.4964 H         1 <0>         0.1451
     57 H19        -2.8331   -1.5440   -4.9033 H         1 <0>         0.1073
     58 H20        -2.0613   -0.3577   -5.9827 H         1 <0>         0.0618
     59 H21        -1.2921   -1.9382   -5.7021 H         1 <0>         0.0608
     60 H22        -0.5786   -0.4124    0.8386 H         1 <0>         0.3887
     61 H23         0.6995    4.5228    4.9997 H         1 <0>         0.0740
     62 H24         2.0325    5.5781    4.8435 H         1 <0>         0.0863
     63 H25        -0.0576    6.6794    4.4906 H         1 <0>         0.3912
     64 H26         4.0772    4.2515    4.3898 H         1 <0>         0.3917
     65 H27        -1.8810   -3.5544    3.4001 H         1 <0>         0.4393
     66 H28        -1.0879   -4.0276    4.7832 H         1 <0>         0.4381
     67 H29        -1.5275   -1.3709    7.5176 H         1 <0>         0.4083
     68 N1         -1.6423   -3.2885    4.3540 N.4       1 <0>        -0.6408
     69 H30        -2.5070   -3.1624    4.8930 H         1 <0>         0.4454
@<TRIPOS>BOND
     1    1    2 1
     2    1   44 1
     3    1   45 1
     4    1   46 1
     5    2    3 1
     6    2   11 1
     7    2    4 1
     8    4    5 1
     9    4    6 1
    10    4   43 1
    11    6    7 1
    12    6    8 1
    13    6   68 1
    14    8    9 1
    15    8   47 1
    16    8   48 1
    17    9   10 1
    18    9   11 1
    19    9   12 1
    20   12   13 1
    21   13   14 1
    22   13   19 1
    23   13   15 1
    24   15   16 1
    25   15   49 1
    26   15   50 1
    27   16   17 1
    28   16   38 1
    29   16   42 1
    30   17   18 1
    31   17   51 1
    32   17   52 1
    33   18   23 ar
    34   18   19 ar
    35   19   20 ar
    36   20   21 ar
    37   20   37 1
    38   21   33 1
    39   21   22 ar
    40   22   23 ar
    41   22   25 1
    42   23   24 1
    43   24   53 1
    44   25   26 2
    45   25   27 1
    46   27   32 ar
    47   27   28 ar
    48   28   29 ar
    49   28   54 1
    50   29   30 ar
    51   29   55 1
    52   30   31 ar
    53   30   56 1
    54   31   32 ar
    55   31   35 1
    56   32   33 1
    57   33   34 2
    58   35   36 1
    59   36   57 1
    60   36   58 1
    61   36   59 1
    62   37   60 1
    63   38   39 2
    64   38   40 1
    65   40   41 1
    66   40   61 1
    67   40   62 1
    68   41   63 1
    69   42   64 1
    70   43   67 1
    71   65   68 1
    72   66   68 1
    73   68   69 1
@<TRIPOS>MOLECULE
ZINC15449300
   69    73     0     0     0
SMALL
USER_CHARGES
(7S,9S)-7-[(2S,4S,5S,6S)-4-amino-5-hydroxy-6-methyl-tetrahydropyran-2-yl]oxy-6,9,11-trihydroxy-9-(2-hydroxyacetyl)-4-methoxy-8,10-dihydro-7H-tetracene-5,12-dione
@<TRIPOS>ATOM
      1 C1         -1.9293   -2.2582   -4.4934 C.3       1 <0>        -0.1592
      2 C2         -2.4406   -1.0478   -3.7095 C.3       1 <0>         0.0724
      3 H1         -1.9870   -0.1395   -4.1063 H         1 <0>         0.0790
      4 C3         -3.9630   -0.9587   -3.8436 C.3       1 <0>         0.0515
      5 H2         -4.2282   -0.8049   -4.8896 H         1 <0>         0.0957
      6 C4         -4.4733    0.2191   -3.0078 C.3       1 <0>         0.0431
      7 H3         -4.0602    1.1493   -3.3980 H         1 <0>         0.1559
      8 C5         -4.0278    0.0305   -1.5544 C.3       1 <0>        -0.1676
      9 C6         -2.5029   -0.0968   -1.5087 C.3       1 <0>         0.2630
     10 H4         -2.0499    0.8239   -1.8765 H         1 <0>         0.0635
     11 O1         -2.0927   -1.1913   -2.3309 O.3       1 <0>        -0.3765
     12 O2         -2.0841   -0.3291   -0.1623 O.3       1 <0>        -0.3186
     13 C7         -0.6720   -0.2292    0.0326 C.3       1 <0>         0.1415
     14 H5         -0.1599   -0.5912   -0.8589 H         1 <0>         0.0882
     15 C8         -0.2989    1.2326    0.2685 C.3       1 <0>        -0.1297
     16 C9          1.1748    1.2924    0.6878 C.3       1 <0>         0.1047
     17 C10         1.3000    0.6955    2.0876 C.3       1 <0>        -0.0989
     18 C11         0.6367   -0.6565    2.1505 C.ar      1 <0>        -0.0405
     19 C12        -0.2724   -1.0772    1.2128 C.ar      1 <0>        -0.0880
     20 C13        -0.8680   -2.3402    1.3293 C.ar      1 <0>         0.1834
     21 C14        -0.5429   -3.1813    2.3913 C.ar      1 <0>        -0.1372
     22 C15         0.3939   -2.7509    3.3525 C.ar      1 <0>        -0.1247
     23 C16         0.9761   -1.4912    3.2234 C.ar      1 <0>         0.1549
     24 O3          1.8788   -1.0701    4.1436 O.3       1 <0>        -0.4698
     25 C17         0.7490   -3.6283    4.4810 C.2       1 <0>         0.4347
     26 O4          1.5567   -3.2572    5.3106 O.2       1 <0>        -0.4044
     27 C18         0.1224   -4.9612    4.6021 C.ar      1 <0>        -0.0828
     28 C19         0.4525   -5.7977    5.6633 C.ar      1 <0>        -0.1043
     29 C20        -0.1368   -7.0466    5.7716 C.ar      1 <0>        -0.0540
     30 C21        -1.0540   -7.4733    4.8327 C.ar      1 <0>        -0.1901
     31 C22        -1.3993   -6.6527    3.7634 C.ar      1 <0>         0.1787
     32 C23        -0.8124   -5.3894    3.6413 C.ar      1 <0>        -0.1622
     33 C24        -1.1688   -4.5097    2.5134 C.2       1 <0>         0.4351
     34 O5         -1.9781   -4.8800    1.6845 O.2       1 <0>        -0.3987
     35 O6         -2.3014   -7.0761    2.8438 O.3       1 <0>        -0.2848
     36 C25        -2.8591   -8.3780    3.0337 C.3       1 <0>         0.0185
     37 O7         -1.7683   -2.7474    0.4004 O.3       1 <0>        -0.4539
     38 C26         2.0110    0.4962   -0.2806 C.2       1 <0>         0.3170
     39 O8          2.3022   -0.6482   -0.0279 O.2       1 <0>        -0.3970
     40 C27         2.4839    1.1280   -1.5644 C.3       1 <0>         0.0415
     41 O9          3.2526    0.1796   -2.3072 O.3       1 <0>        -0.5554
     42 O10         1.6166    2.6513    0.7024 O.3       1 <0>        -0.5345
     43 O11        -4.5556   -2.1713   -3.3740 O.3       1 <0>        -0.5585
     44 H6         -2.2987   -3.1733   -4.0305 H         1 <0>         0.0769
     45 H7         -2.2857   -2.2018   -5.5220 H         1 <0>         0.0820
     46 H8         -0.8393   -2.2617   -4.4862 H         1 <0>         0.0828
     47 H9         -4.4811   -0.8740   -1.1489 H         1 <0>         0.1209
     48 H10        -4.3393    0.8917   -0.9632 H         1 <0>         0.1087
     49 H11        -0.4428    1.8013   -0.6502 H         1 <0>         0.0888
     50 H12        -0.9231    1.6480    1.0597 H         1 <0>         0.1057
     51 H13         0.8243    1.3626    2.8065 H         1 <0>         0.1138
     52 H14         2.3553    0.5899    2.3394 H         1 <0>         0.0956
     53 H15         2.7938   -1.2990    3.9304 H         1 <0>         0.3996
     54 H16         1.1687   -5.4730    6.4036 H         1 <0>         0.1471
     55 H17         0.1238   -7.6920    6.5974 H         1 <0>         0.1439
     56 H18        -1.5061   -8.4494    4.9285 H         1 <0>         0.1444
     57 H19        -3.5639   -8.5921    2.2303 H         1 <0>         0.1069
     58 H20        -2.0609   -9.1202    3.0242 H         1 <0>         0.0608
     59 H21        -3.3780   -8.4148    3.9916 H         1 <0>         0.0606
     60 H22        -1.3705   -3.1599   -0.3785 H         1 <0>         0.3918
     61 H23         1.6935    1.4139   -2.1061 H         1 <0>         0.0705
     62 H24         3.1013    1.9968   -1.3359 H         1 <0>         0.0874
     63 H25         3.5902    0.5188   -3.1475 H         1 <0>         0.3901
     64 H26         2.5422    2.7612    0.9598 H         1 <0>         0.3916
     65 H27        -6.3003    1.0375   -2.5273 H         1 <0>         0.4398
     66 H28        -6.2589    0.3207   -4.0274 H         1 <0>         0.4394
     67 H29        -4.2727   -2.9600   -3.8568 H         1 <0>         0.4094
     68 N1         -5.9457    0.2456   -3.0610 N.4       1 <0>        -0.6379
     69 H30        -6.3137   -0.6231   -2.6560 H         1 <0>         0.4484
@<TRIPOS>BOND
     1    1    2 1
     2    1   44 1
     3    1   45 1
     4    1   46 1
     5    2    3 1
     6    2   11 1
     7    2    4 1
     8    4    5 1
     9    4    6 1
    10    4   43 1
    11    6    7 1
    12    6    8 1
    13    6   68 1
    14    8    9 1
    15    8   47 1
    16    8   48 1
    17    9   10 1
    18    9   11 1
    19    9   12 1
    20   12   13 1
    21   13   14 1
    22   13   19 1
    23   13   15 1
    24   15   16 1
    25   15   49 1
    26   15   50 1
    27   16   17 1
    28   16   38 1
    29   16   42 1
    30   17   18 1
    31   17   51 1
    32   17   52 1
    33   18   23 ar
    34   18   19 ar
    35   19   20 ar
    36   20   21 ar
    37   20   37 1
    38   21   33 1
    39   21   22 ar
    40   22   23 ar
    41   22   25 1
    42   23   24 1
    43   24   53 1
    44   25   26 2
    45   25   27 1
    46   27   32 ar
    47   27   28 ar
    48   28   29 ar
    49   28   54 1
    50   29   30 ar
    51   29   55 1
    52   30   31 ar
    53   30   56 1
    54   31   32 ar
    55   31   35 1
    56   32   33 1
    57   33   34 2
    58   35   36 1
    59   36   57 1
    60   36   58 1
    61   36   59 1
    62   37   60 1
    63   38   39 2
    64   38   40 1
    65   40   41 1
    66   40   61 1
    67   40   62 1
    68   41   63 1
    69   42   64 1
    70   43   67 1
    71   65   68 1
    72   66   68 1
    73   68   69 1
@<TRIPOS>MOLECULE
ZINC01113805
   54    57     0     0     0
SMALL
USER_CHARGES
N1,N3,N5-tris(2-furylmethyl)benzene-1,3,5-tricarboxamide
@<TRIPOS>ATOM
      1 C1         -5.2437    3.4447   -0.5864 C.2       1 <0>        -0.2177
      2 C2         -4.2179    2.5921   -1.0550 C.2       1 <0>        -0.1781
      3 C3         -3.6079    2.0832    0.0305 C.2       1 <0>        -0.0461
      4 O1         -4.2103    2.5750    1.1255 O.3       1 <0>        -0.1706
      5 C4         -5.1993    3.4058    0.7574 C.2       1 <0>        -0.0240
      6 C5         -2.4493    1.1196    0.0198 C.3       1 <0>         0.2039
      7 N1         -1.1906    1.8692    0.0179 N.am      1 <0>        -0.7247
      8 C6         -0.0144    1.2113    0.0087 C.2       1 <0>         0.5640
      9 O2          0.0021   -0.0041    0.0020 O.2       1 <0>        -0.5182
     10 C7          1.2560    1.9680    0.0006 C.ar      1 <0>        -0.1428
     11 C8          1.2371    3.3621    0.0025 C.ar      1 <0>        -0.0285
     12 C9          2.4349    4.0755   -0.0006 C.ar      1 <0>        -0.1437
     13 C10         3.6516    3.3949   -0.0149 C.ar      1 <0>        -0.0001
     14 C11         3.6705    2.0009   -0.0222 C.ar      1 <0>        -0.1431
     15 C12         2.4727    1.2874   -0.0146 C.ar      1 <0>         0.0287
     16 C13         4.9610    1.2790   -0.0374 C.2       1 <0>         0.5646
     17 O3          4.9775    0.0637   -0.0433 O.2       1 <0>        -0.5210
     18 N2          6.1189    1.9687   -0.0447 N.am      1 <0>        -0.7237
     19 C14         7.3974    1.2536   -0.0598 C.3       1 <0>         0.2045
     20 C15         8.5294    2.2484   -0.0654 C.2       1 <0>        -0.0463
     21 C16         9.1303    2.7624    1.0227 C.2       1 <0>        -0.1778
     22 C17        10.1305    3.6473    0.5587 C.2       1 <0>        -0.2182
     23 C18        10.0811    3.6211   -0.7853 C.2       1 <0>        -0.0240
     24 O4          9.1133    2.7676   -1.1578 O.3       1 <0>        -0.1708
     25 C19         2.4148    5.5541    0.0076 C.2       1 <0>         0.5652
     26 O5          3.4591    6.1761    0.0019 O.2       1 <0>        -0.5236
     27 N3          1.2387    6.2120    0.0215 N.am      1 <0>        -0.7237
     28 C20         1.2188    7.6769    0.0297 C.3       1 <0>         0.2043
     29 C21        -0.2087    8.1598    0.0448 C.2       1 <0>        -0.0473
     30 C22        -0.9442    8.4060    1.1437 C.2       1 <0>        -0.1774
     31 C23        -2.2149    8.8370    0.6981 C.2       1 <0>        -0.2178
     32 C24        -2.1798    8.8285   -0.6466 C.2       1 <0>        -0.0232
     33 O6         -0.9603    8.4230   -1.0367 O.3       1 <0>        -0.1706
     34 H1         -5.9310    4.0176   -1.1913 H         1 <0>         0.1519
     35 H2         -3.9709    2.3890   -2.0866 H         1 <0>         0.1520
     36 H3         -5.8517    3.9467    1.4269 H         1 <0>         0.2061
     37 H4         -2.5027    0.4970   -0.8734 H         1 <0>         0.1050
     38 H5         -2.4943    0.4874    0.9065 H         1 <0>         0.0911
     39 H6         -1.2038    2.8391    0.0232 H         1 <0>         0.4013
     40 H7          0.2945    3.8893    0.0099 H         1 <0>         0.1323
     41 H8          4.5795    3.9476   -0.0201 H         1 <0>         0.1476
     42 H9          2.4874    0.2075   -0.0203 H         1 <0>         0.1610
     43 H10         6.1057    2.9386   -0.0400 H         1 <0>         0.4053
     44 H11         7.4718    0.6235    0.8266 H         1 <0>         0.1047
     45 H12         7.4555    0.6320   -0.9533 H         1 <0>         0.0906
     46 H13         8.8936    2.5420    2.0532 H         1 <0>         0.1521
     47 H14        10.8047    4.2324    1.1666 H         1 <0>         0.1522
     48 H15        10.7155    4.1864   -1.4519 H         1 <0>         0.2065
     49 H16         0.4053    5.7157    0.0261 H         1 <0>         0.4021
     50 H17         1.7354    8.0423    0.9172 H         1 <0>         0.1048
     51 H18         1.7198    8.0520   -0.8627 H         1 <0>         0.0909
     52 H19        -0.6256    8.2950    2.1697 H         1 <0>         0.1520
     53 H20        -3.0530    9.1187    1.3182 H         1 <0>         0.1521
     54 H21        -2.9926    9.1057   -1.3014 H         1 <0>         0.2063
@<TRIPOS>BOND
     1    1    5 2
     2    1    2 1
     3    1   34 1
     4    2    3 2
     5    2   35 1
     6    3    4 1
     7    3    6 1
     8    4    5 1
     9    5   36 1
    10    6    7 1
    11    6   37 1
    12    6   38 1
    13    7    8 am
    14    7   39 1
    15    8    9 2
    16    8   10 1
    17   10   15 ar
    18   10   11 ar
    19   11   12 ar
    20   11   40 1
    21   12   13 ar
    22   12   25 1
    23   13   14 ar
    24   13   41 1
    25   14   15 ar
    26   14   16 1
    27   15   42 1
    28   16   17 2
    29   16   18 am
    30   18   19 1
    31   18   43 1
    32   19   20 1
    33   19   44 1
    34   19   45 1
    35   20   24 1
    36   20   21 2
    37   21   22 1
    38   21   46 1
    39   22   23 2
    40   22   47 1
    41   23   24 1
    42   23   48 1
    43   25   26 2
    44   25   27 am
    45   27   28 1
    46   27   49 1
    47   28   29 1
    48   28   50 1
    49   28   51 1
    50   29   33 1
    51   29   30 2
    52   30   31 1
    53   30   52 1
    54   31   32 2
    55   31   53 1
    56   32   33 1
    57   32   54 1
@<TRIPOS>MOLECULE
ZINC06535079
   22    23     0     0     0
SMALL
USER_CHARGES
6,7-dihydroxynaphthalene-2-carboxylic acid
@<TRIPOS>ATOM
      1 C1          0.0725    5.1673    0.0291 C.ar      1 <0>        -0.1353
      2 C2          0.0450    3.8104    0.0163 C.ar      1 <0>        -0.0591
      3 C3          1.2383    3.0653    0.0067 C.ar      1 <0>        -0.1035
      4 C4          2.4679    3.7064   -0.0016 C.ar      1 <0>        -0.0776
      5 C5          2.5151    5.1072    0.0055 C.ar      1 <0>        -0.0538
      6 C6          1.3044    5.8472    0.0210 C.ar      1 <0>        -0.0436
      7 C7          1.3542    7.2505    0.0286 C.ar      1 <0>        -0.1182
      8 C8          2.5624    7.8859    0.0209 C.ar      1 <0>         0.0744
      9 C9          3.7601    7.1543    0.0060 C.ar      1 <0>         0.0682
     10 C10         3.7450    5.7909   -0.0021 C.ar      1 <0>        -0.1076
     11 O1          4.9493    7.8129   -0.0009 O.3       1 <0>        -0.4907
     12 O2          2.6060    9.2438    0.0283 O.3       1 <0>        -0.4912
     13 C11         1.1811    1.5908   -0.0007 C.2       1 <0>         0.4871
     14 O3          2.2088    0.9430   -0.0140 O.co2     1 <0>        -0.6277
     15 H1         -0.8519    5.7256    0.0406 H         1 <0>         0.1247
     16 H2         -0.9047    3.2962    0.0182 H         1 <0>         0.1357
     17 H3          3.3818    3.1310   -0.0131 H         1 <0>         0.1360
     18 H4          0.4398    7.8251    0.0408 H         1 <0>         0.1336
     19 H5          4.6729    5.2383   -0.0136 H         1 <0>         0.1363
     20 H6          5.3013    7.9984    0.8804 H         1 <0>         0.3815
     21 H7          2.6269    9.6319    0.9138 H         1 <0>         0.3816
     22 O4         -0.0110    0.9628    0.0073 O.co2     1 <0>        -0.7508
@<TRIPOS>BOND
     1    1    6 ar
     2    1    2 ar
     3    1   15 1
     4    2    3 ar
     5    2   16 1
     6    3    4 ar
     7    3   13 1
     8    4    5 ar
     9    4   17 1
    10    5   10 ar
    11    5    6 ar
    12    6    7 ar
    13    7    8 ar
    14    7   18 1
    15    8    9 ar
    16    8   12 1
    17    9   10 ar
    18    9   11 1
    19   10   19 1
    20   11   20 1
    21   12   21 1
    22   13   14 2
    23   13   22 1
@<TRIPOS>MOLECULE
ZINC02895827
   44    45     0     0     0
SMALL
USER_CHARGES

@<TRIPOS>ATOM
      1 C1         -0.0742    1.4767   -0.0221 C.3       1 <0>        -0.1555
      2 C2         -0.0236   -0.0525   -0.0197 C.3       1 <0>        -0.0568
      3 C3          0.7087   -0.5290    1.2081 C.2       1 <0>        -0.1044
      4 S1          2.4537   -0.8324    1.4068 S.3       1 <0>         0.2222
      5 C4          2.4570   -1.3532    3.1122 C.2       1 <0>        -0.1276
      6 C5          1.1075   -1.2689    3.4514 C.2       1 <0>        -0.1764
      7 C6          0.2041   -0.8220    2.4192 C.2       1 <0>        -0.1170
      8 C7          0.6305   -1.6118    4.7929 C.2       1 <0>         0.3881
      9 N1          1.4523   -2.1123    5.6665 N.pl3     1 <0>        -0.5678
     10 C8          0.9539   -2.5568    6.9704 C.3       1 <0>         0.0426
     11 C9          1.1357   -4.0707    7.0969 C.3       1 <0>         0.0309
     12 N2          0.6373   -4.5152    8.4008 N.pl3     1 <0>        -0.5596
     13 C10        -0.3922   -5.3053    8.4679 C.2       1 <0>         0.3942
     14 C11        -0.9583   -5.6615    9.7709 C.2       1 <0>        -0.1507
     15 C12        -0.3577   -5.2590   10.9628 C.2       1 <0>        -0.1857
     16 S2         -1.4461   -5.9562   12.1912 S.3       1 <0>         0.2877
     17 C13        -2.6285   -6.7367   11.1100 C.2       1 <0>        -0.1036
     18 C14        -2.1672   -6.4407    9.8823 C.2       1 <0>        -0.1261
     19 C15        -3.8537   -7.5312   11.4820 C.3       1 <0>        -0.0600
     20 C16        -3.4810   -9.0087   11.6201 C.3       1 <0>        -0.1557
     21 S3          1.1050   -4.3046   11.1961 S.3       1 <0>         0.0380
     22 S4          3.8194   -1.8488    4.1137 S.3       1 <0>         0.0160
     23 H1          0.9409    1.8738   -0.0275 H         1 <0>         0.0606
     24 H2         -0.6039    1.8213   -0.9102 H         1 <0>         0.0800
     25 H3         -0.5956    1.8244    0.8698 H         1 <0>         0.0639
     26 H4         -1.0387   -0.4496   -0.0143 H         1 <0>         0.1062
     27 H5          0.4977   -0.4001   -0.9116 H         1 <0>         0.0942
     28 H6         -0.8540   -0.7279    2.6142 H         1 <0>         0.1702
     29 H7         -0.4041   -1.4489    5.0563 H         1 <0>         0.2172
     30 H8          1.5113   -2.0565    7.7623 H         1 <0>         0.1358
     31 H9         -0.1040   -2.3093    7.0586 H         1 <0>         0.1353
     32 H10         0.5783   -4.5710    6.3050 H         1 <0>         0.1358
     33 H11         2.1936   -4.3181    7.0086 H         1 <0>         0.1415
     34 H12        -0.8305   -5.6994    7.5629 H         1 <0>         0.2154
     35 H13        -2.6876   -6.7819    8.9997 H         1 <0>         0.1701
     36 H14        -4.2495   -7.1663   12.4298 H         1 <0>         0.0965
     37 H15        -4.6098   -7.4183   10.7050 H         1 <0>         0.1063
     38 H16        -4.3672   -9.5834   11.8892 H         1 <0>         0.0813
     39 H17        -3.0853   -9.3737   10.6723 H         1 <0>         0.0641
     40 H18        -2.7249   -9.1216   12.3971 H         1 <0>         0.0625
     41 H19         0.6631   -3.0347   11.2285 H         1 <0>         0.0989
     42 H20         4.8805   -1.7461    3.2937 H         1 <0>         0.1483
     43 H21         2.3957   -2.1915    5.4552 H         1 <0>         0.4240
     44 H22         1.0757   -4.2197    9.2140 H         1 <0>         0.4187
@<TRIPOS>BOND
     1    1    2 1
     2    1   23 1
     3    1   24 1
     4    1   25 1
     5    2    3 1
     6    2   26 1
     7    2   27 1
     8    3    7 2
     9    3    4 1
    10    4    5 1
    11    5    6 2
    12    5   22 1
    13    6    7 1
    14    6    8 1
    15    7   28 1
    16    8    9 2
    17    8   29 1
    18    9   10 1
    19    9   43 1
    20   10   11 1
    21   10   30 1
    22   10   31 1
    23   11   12 1
    24   11   32 1
    25   11   33 1
    26   12   13 2
    27   12   44 1
    28   13   14 1
    29   13   34 1
    30   14   18 1
    31   14   15 2
    32   15   16 1
    33   15   21 1
    34   16   17 1
    35   17   18 2
    36   17   19 1
    37   18   35 1
    38   19   20 1
    39   19   36 1
    40   19   37 1
    41   20   38 1
    42   20   39 1
    43   20   40 1
    44   21   41 1
    45   22   42 1
@<TRIPOS>MOLECULE
ZINC02895827
   43    44     0     0     0
SMALL
USER_CHARGES
(3Z)-5-ethyl-3-[[2-[[(Z)-(5-ethyl-2-thioxo-3-thienylidene)methyl]amino]ethylamino]methylene]thiophene-2-thione
@<TRIPOS>ATOM
      1 C1          2.8682    4.4528   -2.3322 C.3       1 <0>        -0.1531
      2 C2          2.1671    4.4406   -0.9724 C.3       1 <0>        -0.0474
      3 C3          1.0850    3.3917   -0.9746 C.2       1 <0>        -0.1543
      4 C4          1.1689    2.1331   -0.5392 C.2       1 <0>        -0.0987
      5 C5          0.0022    1.2748   -0.6300 C.2       1 <0>        -0.2669
      6 C6          0.0083   -0.0360   -0.2028 C.2       1 <0>         0.3264
      7 N1         -1.1538   -0.7422   -0.1575 N.pl3     1 <0>        -0.6634
      8 C7         -1.1317   -2.1683    0.1771 C.3       1 <0>         0.0677
      9 C8         -2.5592   -2.7186    0.1589 C.3       1 <0>         0.0603
     10 N2         -2.5371   -4.1447    0.4935 N.pl3     1 <0>        -0.6104
     11 C9         -3.6993   -4.8509    0.5389 C.2       1 <0>         0.3682
     12 C10        -3.6698   -6.2147    0.7386 C.2       1 <0>        -0.1781
     13 C11        -4.8695   -6.9981    0.9693 C.2       1 <0>        -0.0905
     14 C12        -4.7598   -8.3151    1.1540 C.2       1 <0>        -0.1236
     15 S1         -3.0140   -8.6441    1.0360 S.3       1 <0>         0.2150
     16 C13        -2.4216   -6.9904    0.7285 C.2       1 <0>        -0.1450
     17 S2         -0.8162   -6.4474    0.4861 S.3       1 <0>         0.2383
     18 C14        -5.8680   -9.3047    1.4065 C.3       1 <0>        -0.0568
     19 C15        -6.2939   -9.9423    0.0825 C.3       1 <0>        -0.1576
     20 C16        -1.1845    1.9109   -1.2189 C.2       1 <0>         0.0931
     21 S3         -2.7359    1.2451   -1.5035 S.3       1 <0>        -0.4873
     22 S4         -0.5889    3.5571   -1.5586 S.3       1 <0>         0.0999
     23 H1          3.6580    5.2184   -2.3306 H         1 <0>         0.0679
     24 H2          2.1360    4.6830   -3.1202 H         1 <0>         0.0595
     25 H3          3.3146    3.4658   -2.5234 H         1 <0>         0.0587
     26 H4          2.8993    4.2104   -0.1844 H         1 <0>         0.0892
     27 H5          1.7207    5.4276   -0.7811 H         1 <0>         0.0833
     28 H6          2.0929    1.7582   -0.1243 H         1 <0>         0.1430
     29 H7          0.9527   -0.5109    0.1014 H         1 <0>         0.1724
     30 H8         -0.5210   -2.7087   -0.5611 H         1 <0>         0.0975
     31 H9         -0.6995   -2.3031    1.1796 H         1 <0>         0.0958
     32 H10        -3.1699   -2.1782    0.8971 H         1 <0>         0.1215
     33 H11        -2.9914   -2.5838   -0.8436 H         1 <0>         0.1252
     34 H12        -1.5810   -4.6446    0.7080 H         1 <0>         0.4315
     35 H13        -4.6623   -4.3337    0.4163 H         1 <0>         0.2163
     36 H14        -5.8383   -6.5214    0.9916 H         1 <0>         0.1731
     37 H15        -5.5115  -10.0873    2.0924 H         1 <0>         0.0920
     38 H16        -6.7272   -8.7861    1.8568 H         1 <0>         0.1061
     39 H17        -7.1028  -10.6646    0.2668 H         1 <0>         0.0780
     40 H18        -5.4347  -10.4610   -0.3678 H         1 <0>         0.0590
     41 H19        -6.6504   -9.1597   -0.6034 H         1 <0>         0.0655
     42 H20         0.0167   -7.1655    0.5092 H         1 <0>        -0.0090
     43 H21        -2.1099   -0.2423   -0.3721 H         1 <0>         0.4380
@<TRIPOS>BOND
     1    1    2 1
     2    1   23 1
     3    1   24 1
     4    1   25 1
     5    2    3 1
     6    2   26 1
     7    2   27 1
     8    3   22 1
     9    3    4 2
    10    4    5 1
    11    4   28 1
    12    5    6 1
    13    5   20 2
    14    6    7 2
    15    6   29 1
    16    7    8 1
    17    7   43 1
    18    8    9 1
    19    8   30 1
    20    8   31 1
    21    9   10 1
    22    9   32 1
    23    9   33 1
    24   10   11 2
    25   10   34 1
    26   11   12 1
    27   11   35 1
    28   12   16 2
    29   12   13 1
    30   13   14 2
    31   13   36 1
    32   14   15 1
    33   14   18 1
    34   15   16 1
    35   16   17 1
    36   17   42 1
    37   18   19 1
    38   18   37 1
    39   18   38 1
    40   19   39 1
    41   19   40 1
    42   19   41 1
    43   20   21 1
    44   20   22 1
@<TRIPOS>MOLECULE
ZINC09310951
   50    52     0     0     0
SMALL
USER_CHARGES
2,5-bis[(2-phenylacetyl)amino]terephthalic acid
@<TRIPOS>ATOM
      1 C1          8.8327    6.4045    1.2469 C.ar      1 <0>        -0.1287
      2 C2          8.5922    6.1611   -0.0924 C.ar      1 <0>        -0.1212
      3 C3          7.3387    5.7505   -0.5061 C.ar      1 <0>        -0.1038
      4 C4          6.3256    5.5838    0.4196 C.ar      1 <0>        -0.0522
      5 C5          6.5646    5.8327    1.7582 C.ar      1 <0>        -0.1045
      6 C6          7.8197    6.2378    2.1725 C.ar      1 <0>        -0.1220
      7 C7          4.9590    5.1366   -0.0314 C.3       1 <0>        -0.1019
      8 C8          4.8886    3.6315   -0.0044 C.2       1 <0>         0.4979
      9 O1          5.8533    2.9855    0.3465 O.2       1 <0>        -0.5197
     10 N1          3.7538    3.0032   -0.3702 N.am      1 <0>        -0.6396
     11 C9          3.6632    1.6149   -0.2740 C.ar      1 <0>         0.1370
     12 C10         4.8009    0.8357   -0.4064 C.ar      1 <0>        -0.0843
     13 C11         4.7096   -0.5529   -0.3150 C.ar      1 <0>        -0.1315
     14 C12         3.4656   -1.1608   -0.0848 C.ar      1 <0>         0.1366
     15 C13         2.3285   -0.3814    0.0515 C.ar      1 <0>        -0.0747
     16 C14         2.4199    1.0073   -0.0390 C.ar      1 <0>        -0.1343
     17 C15         1.2081    1.8379    0.1063 C.2       1 <0>         0.5043
     18 O2          1.3026    3.0484    0.1464 O.co2     1 <0>        -0.6442
     19 N2          3.3742   -2.5494    0.0062 N.am      1 <0>        -0.6430
     20 C16         2.2820   -3.1850   -0.4624 C.2       1 <0>         0.4989
     21 O3          1.4175   -2.5600   -1.0395 O.2       1 <0>        -0.5219
     22 C17         2.1348   -4.6724   -0.2693 C.3       1 <0>        -0.1022
     23 C18         0.8364   -5.1323   -0.8805 C.ar      1 <0>        -0.0522
     24 C19        -0.3159   -5.1581   -0.1173 C.ar      1 <0>        -0.1034
     25 C20        -1.5080   -5.5749   -0.6794 C.ar      1 <0>        -0.1209
     26 C21        -1.5457   -5.9763   -2.0016 C.ar      1 <0>        -0.1289
     27 C22        -0.3923   -5.9559   -2.7632 C.ar      1 <0>        -0.1226
     28 C23         0.7987   -5.5337   -2.2027 C.ar      1 <0>        -0.1049
     29 C24         5.9214   -1.3836   -0.4607 C.2       1 <0>         0.5052
     30 O4          5.8573   -2.5855   -0.2966 O.co2     1 <0>        -0.6449
     31 H1          9.8122    6.7246    1.5701 H         1 <0>         0.1151
     32 H2          9.3836    6.2914   -0.8156 H         1 <0>         0.1176
     33 H3          7.1507    5.5604   -1.5524 H         1 <0>         0.1201
     34 H4          5.7719    5.7067    2.4808 H         1 <0>         0.1202
     35 H5          8.0077    6.4276    3.2189 H         1 <0>         0.1171
     36 H6          4.7773    5.4907   -1.0461 H         1 <0>         0.1000
     37 H7          4.2030    5.5477    0.6377 H         1 <0>         0.1045
     38 H8          2.9999    3.5167   -0.7004 H         1 <0>         0.4199
     39 H9          5.7581    1.3034   -0.5838 H         1 <0>         0.1561
     40 H10         1.3712   -0.8491    0.2282 H         1 <0>         0.1407
     41 H11         4.0967   -3.0578    0.4067 H         1 <0>         0.4202
     42 H12         2.9660   -5.1855   -0.7531 H         1 <0>         0.1034
     43 H13         2.1365   -4.9023    0.7961 H         1 <0>         0.1005
     44 H14        -0.2856   -4.8487    0.9170 H         1 <0>         0.1206
     45 H15        -2.4093   -5.5905   -0.0844 H         1 <0>         0.1179
     46 H16        -2.4763   -6.3055   -2.4397 H         1 <0>         0.1150
     47 H17        -0.4217   -6.2695   -3.7963 H         1 <0>         0.1169
     48 H18         1.6999   -5.5177   -2.7978 H         1 <0>         0.1201
     49 O5         -0.0027    1.2535    0.1945 O.co2     1 <0>        -0.7493
     50 O6          7.0984   -0.8086   -0.7758 O.co2     1 <0>        -0.7492
@<TRIPOS>BOND
     1    1    6 ar
     2    1    2 ar
     3    1   31 1
     4    2    3 ar
     5    2   32 1
     6    3    4 ar
     7    3   33 1
     8    4    5 ar
     9    4    7 1
    10    5    6 ar
    11    5   34 1
    12    6   35 1
    13    7    8 1
    14    7   36 1
    15    7   37 1
    16    8    9 2
    17    8   10 am
    18   10   11 1
    19   10   38 1
    20   11   16 ar
    21   11   12 ar
    22   12   13 ar
    23   12   39 1
    24   13   14 ar
    25   13   29 1
    26   14   15 ar
    27   14   19 1
    28   15   16 ar
    29   15   40 1
    30   16   17 1
    31   17   18 2
    32   17   49 1
    33   19   20 am
    34   19   41 1
    35   20   21 2
    36   20   22 1
    37   22   23 1
    38   22   42 1
    39   22   43 1
    40   23   28 ar
    41   23   24 ar
    42   24   25 ar
    43   24   44 1
    44   25   26 ar
    45   25   45 1
    46   26   27 ar
    47   26   46 1
    48   27   28 ar
    49   27   47 1
    50   28   48 1
    51   29   30 2
    52   29   50 1
@<TRIPOS>MOLECULE
ZINC04834691
   43    46     0     0     0
SMALL
USER_CHARGES

@<TRIPOS>ATOM
      1 C1         -0.0173    1.4248    0.0099 C.3       1 <0>         0.0236
      2 O1          0.0021   -0.0041    0.0020 O.3       1 <0>        -0.3124
      3 C2          0.6060   -0.6074   -1.0561 C.ar      1 <0>         0.1136
      4 C3          1.1738    0.1672   -2.0641 C.ar      1 <0>        -0.1585
      5 C4          1.7882   -0.4286   -3.1456 C.ar      1 <0>        -0.0847
      6 C5          1.8450   -1.8118   -3.2358 C.ar      1 <0>         0.0923
      7 C6          1.2766   -2.6003   -2.2184 C.ar      1 <0>        -0.1036
      8 C7          0.6585   -1.9856   -1.1236 C.ar      1 <0>        -0.0934
      9 C8          1.3490   -4.0605   -2.3175 C.2       1 <0>         0.0101
     10 C9          2.1995   -4.5897   -3.2587 C.2       1 <0>        -0.1338
     11 C10         2.9648   -3.6412   -4.0869 C.2       1 <0>         0.5268
     12 O2          4.0369   -3.9554   -4.5699 O.2       1 <0>        -0.4323
     13 O3          2.4418   -2.4117   -4.2950 O.3       1 <0>        -0.2708
     14 C11         2.3413   -6.0537   -3.4330 C.2       1 <0>         0.1333
     15 C12         3.1983   -6.5578   -4.3732 C.2       1 <0>        -0.2129
     16 S1          2.9579   -8.3135   -4.1341 S.3       1 <0>         0.0666
     17 C13         1.7526   -8.1973   -2.8194 C.2       1 <0>         0.3886
     18 N1          1.6437   -6.8883   -2.6762 N.2       1 <0>        -0.5630
     19 N2          1.1076   -9.2101   -2.1308 N.pl3     1 <0>        -0.5245
     20 N3          1.3762  -10.5496   -2.4413 N.2       1 <0>        -0.2108
     21 C14         0.7711  -11.4997   -1.7953 C.2       1 <0>         0.1149
     22 C15         1.0536  -12.9087   -2.1219 C.ar      1 <0>        -0.0871
     23 C16         0.4007  -13.9338   -1.4334 C.ar      1 <0>        -0.0721
     24 C17         0.6698  -15.2503   -1.7440 C.ar      1 <0>        -0.1333
     25 C18         1.5849  -15.5606   -2.7353 C.ar      1 <0>        -0.0835
     26 C19         2.2379  -14.5552   -3.4235 C.ar      1 <0>        -0.1519
     27 C20         1.9747  -13.2277   -3.1290 C.ar      1 <0>         0.1472
     28 O4          2.6114  -12.2390   -3.8089 O.3       1 <0>        -0.4764
     29 H1          1.0053    1.8021    0.0021 H         1 <0>         0.0588
     30 H2         -0.5445    1.7859   -0.8732 H         1 <0>         0.0590
     31 H3         -0.5275    1.7763    0.9067 H         1 <0>         0.1046
     32 H4          1.1325    1.2445   -1.9987 H         1 <0>         0.1455
     33 H5          2.2247    0.1816   -3.9224 H         1 <0>         0.1482
     34 H6          0.2214   -2.5852   -0.3389 H         1 <0>         0.1484
     35 H7          0.7573   -4.6962   -1.6755 H         1 <0>         0.1631
     36 H8          3.8418   -6.0387   -5.0680 H         1 <0>         0.2079
     37 H9          0.4697   -8.9924   -1.4333 H         1 <0>         0.4036
     38 H10         0.0608  -11.2573   -1.0187 H         1 <0>         0.1272
     39 H11        -0.3133  -13.6958   -0.6589 H         1 <0>         0.1335
     40 H12         0.1647  -16.0425   -1.2113 H         1 <0>         0.1318
     41 H13         1.7901  -16.5942   -2.9721 H         1 <0>         0.1307
     42 H14         2.9510  -14.8051   -4.1951 H         1 <0>         0.1341
     43 H15         3.4463  -11.9608   -3.4082 H         1 <0>         0.3916
@<TRIPOS>BOND
     1    1    2 1
     2    1   29 1
     3    1   30 1
     4    1   31 1
     5    2    3 1
     6    3    8 ar
     7    3    4 ar
     8    4    5 ar
     9    4   32 1
    10    5    6 ar
    11    5   33 1
    12    6   13 1
    13    6    7 ar
    14    7    8 ar
    15    7    9 1
    16    8   34 1
    17    9   10 2
    18    9   35 1
    19   10   11 1
    20   10   14 1
    21   11   12 2
    22   11   13 1
    23   14   18 1
    24   14   15 2
    25   15   16 1
    26   15   36 1
    27   16   17 1
    28   17   18 2
    29   17   19 1
    30   19   20 1
    31   19   37 1
    32   20   21 2
    33   21   22 1
    34   21   38 1
    35   22   27 ar
    36   22   23 ar
    37   23   24 ar
    38   23   39 1
    39   24   25 ar
    40   24   40 1
    41   25   26 ar
    42   25   41 1
    43   26   27 ar
    44   26   42 1
    45   27   28 1
    46   28   43 1
@<TRIPOS>MOLECULE
ZINC04834691
   44    47     0     0     0
SMALL
USER_CHARGES

@<TRIPOS>ATOM
      1 C1         -0.0372    1.4252   -0.0018 C.3       1 <0>         0.0217
      2 O1         -0.0139   -0.0036   -0.0078 O.3       1 <0>        -0.3108
      3 C2          0.5822   -0.6068   -1.0705 C.ar      1 <0>         0.1168
      4 C3          1.1387    0.1679   -2.0846 C.ar      1 <0>        -0.1485
      5 C4          1.7450   -0.4278   -3.1707 C.ar      1 <0>        -0.0835
      6 C5          1.8056   -1.8110   -3.2590 C.ar      1 <0>         0.0969
      7 C6          1.2486   -2.5996   -2.2354 C.ar      1 <0>        -0.1179
      8 C7          0.6379   -1.9849   -1.1364 C.ar      1 <0>        -0.0895
      9 C8          1.3251   -4.0597   -2.3325 C.2       1 <0>         0.0412
     10 C9          2.1693   -4.5878   -3.2801 C.2       1 <0>        -0.1627
     11 C10         2.9243   -3.6382   -4.1165 C.2       1 <0>         0.5295
     12 O2          3.9932   -3.9497   -4.6081 O.2       1 <0>        -0.4346
     13 O3          2.3954   -2.4108   -4.3222 O.3       1 <0>        -0.2651
     14 C11         2.3145   -6.0516   -3.4530 C.2       1 <0>         0.1359
     15 C12         3.1651   -6.5545   -4.3996 C.2       1 <0>        -0.1476
     16 S1          2.9327   -8.3105   -4.1554 S.3       1 <0>         0.0535
     17 C13         1.7383   -8.1960   -2.8306 C.2       1 <0>         0.2966
     18 N1          1.6262   -6.8871   -2.6888 N.2       1 <0>        -0.4992
     19 N2          1.1026   -9.2097   -2.1347 N.pl3     1 <0>        -0.4833
     20 N3          1.3730  -10.5488   -2.4451 N.pl3     1 <0>        -0.2995
     21 C14         0.7766  -11.4998   -1.7923 C.2       1 <0>         0.3292
     22 C15         0.9758  -12.9046   -2.1910 C.ar      1 <0>        -0.1815
     23 C16         0.2483  -13.9213   -1.5681 C.ar      1 <0>        -0.0144
     24 C17         0.4395  -15.2338   -1.9460 C.ar      1 <0>        -0.1240
     25 C18         1.3502  -15.5484   -2.9400 C.ar      1 <0>        -0.0227
     26 C19         2.0766  -14.5512   -3.5637 C.ar      1 <0>        -0.1373
     27 C20         1.8921  -13.2273   -3.2012 C.ar      1 <0>         0.1510
     28 O4          2.6010  -12.2462   -3.8177 O.3       1 <0>        -0.4943
     29 H1          0.9842    1.8053   -0.0193 H         1 <0>         0.0609
     30 H2         -0.5733    1.7835   -0.8806 H         1 <0>         0.0612
     31 H3         -0.5403    1.7766    0.8990 H         1 <0>         0.1079
     32 H4          1.0950    1.2451   -2.0204 H         1 <0>         0.1498
     33 H5          2.1728    0.1824   -3.9523 H         1 <0>         0.1520
     34 H6          0.2095   -2.5846   -0.3469 H         1 <0>         0.1499
     35 H7          0.7411   -4.6962   -1.6844 H         1 <0>         0.1638
     36 H8          3.8008   -6.0345   -5.1008 H         1 <0>         0.2256
     37 H9          0.4699   -8.9929   -1.4321 H         1 <0>         0.4638
     38 H10         2.0057  -10.7656   -3.1477 H         1 <0>         0.4474
     39 H11         0.1347  -11.2614   -0.9572 H         1 <0>         0.2204
     40 H12        -0.4626  -13.6800   -0.7917 H         1 <0>         0.1596
     41 H13        -0.1233  -16.0196   -1.4640 H         1 <0>         0.1564
     42 H14         1.4942  -16.5788   -3.2298 H         1 <0>         0.1550
     43 H15         2.7857  -14.8045   -4.3379 H         1 <0>         0.1567
     44 H16         3.4448  -12.0433   -3.3912 H         1 <0>         0.4137
@<TRIPOS>BOND
     1    1    2 1
     2    1   29 1
     3    1   30 1
     4    1   31 1
     5    2    3 1
     6    3    8 ar
     7    3    4 ar
     8    4    5 ar
     9    4   32 1
    10    5    6 ar
    11    5   33 1
    12    6   13 1
    13    6    7 ar
    14    7    8 ar
    15    7    9 1
    16    8   34 1
    17    9   10 2
    18    9   35 1
    19   10   11 1
    20   10   14 1
    21   11   12 2
    22   11   13 1
    23   14   18 1
    24   14   15 2
    25   15   16 1
    26   15   36 1
    27   16   17 1
    28   17   18 2
    29   17   19 1
    30   19   20 1
    31   19   37 1
    32   20   21 2
    33   20   38 1
    34   21   22 1
    35   21   39 1
    36   22   27 ar
    37   22   23 ar
    38   23   24 ar
    39   23   40 1
    40   24   25 ar
    41   24   41 1
    42   25   26 ar
    43   25   42 1
    44   26   27 ar
    45   26   43 1
    46   27   28 1
    47   28   44 1
@<TRIPOS>MOLECULE
ZINC01581128
   57    60     0     0     0
SMALL
USER_CHARGES
3-aminopropylamino-dihydroxy-[2-(2-hydroxyethylamino)ethyl]BLAHone
@<TRIPOS>ATOM
      1 C1          3.3672   -1.6657   -0.0391 C.ar      1 <0>        -0.1543
      2 C2          1.9877   -1.6601   -0.0260 C.ar      1 <0>        -0.0429
      3 C3          1.2983   -0.4462   -0.0125 C.ar      1 <0>         0.0729
      4 C4          2.0695    0.7070   -0.0129 C.ar      1 <0>        -0.1015
      5 C5          3.4628    0.7388   -0.0244 C.ar      1 <0>        -0.1869
      6 C6          4.1304   -0.4926   -0.0380 C.ar      1 <0>         0.2663
      7 N1          5.5160   -0.5481   -0.0505 N.pl3     1 <0>        -0.7248
      8 C7          6.1971   -1.8450   -0.0646 C.3       1 <0>         0.1195
      9 C8          7.7113   -1.6258   -0.0765 C.3       1 <0>        -0.1697
     10 C9          8.4226   -2.9803   -0.0913 C.3       1 <0>         0.0016
     11 H1         10.3692   -3.6502   -0.1125 H         1 <0>         0.4445
     12 H2         10.1521   -2.1924   -0.8829 H         1 <0>         0.4396
     13 C10         4.1194    2.0479   -0.0212 C.2       1 <0>         0.4523
     14 O1          5.3351    2.1322   -0.0286 O.2       1 <0>        -0.4506
     15 C11         3.2819    3.2632   -0.0101 C.ar      1 <0>        -0.1549
     16 C12         3.9013    4.5236   -0.0116 C.ar      1 <0>         0.1658
     17 C13         3.1327    5.6734   -0.0032 C.ar      1 <0>        -0.1224
     18 C14         1.7505    5.5964    0.0065 C.ar      1 <0>        -0.0903
     19 C15         1.1172    4.3653    0.0079 C.ar      1 <0>         0.1216
     20 C16         1.8721    3.1910   -0.0001 C.ar      1 <0>         0.0074
     21 C17         1.2090    1.8735    0.0006 C.2       1 <0>         0.1366
     22 N2         -0.0170    1.4056    0.0098 N.2       1 <0>        -0.1856
     23 N3          0.0021   -0.0041    0.0020 N.pl3     1 <0>        -0.4049
     24 C18        -1.1835   -0.8646    0.0081 C.3       1 <0>         0.1248
     25 C19        -1.6096   -1.1559   -1.4322 C.3       1 <0>        -0.0298
     26 C20        -3.2372   -2.3202   -2.7953 C.3       1 <0>         0.0015
     27 C21        -4.4746   -3.2189   -2.7482 C.3       1 <0>         0.0442
     28 O2         -5.5594   -2.5048   -2.1522 O.3       1 <0>        -0.5821
     29 O3         -0.2406    4.2999    0.0177 O.3       1 <0>        -0.4806
     30 O4          5.2559    4.6134   -0.0209 O.3       1 <0>        -0.4740
     31 H3          3.8802   -2.6161   -0.0500 H         1 <0>         0.1390
     32 H4          1.4425   -2.5923   -0.0271 H         1 <0>         0.1372
     33 H5          6.0342    0.2719   -0.0499 H         1 <0>         0.4217
     34 H6          5.9190   -2.4112    0.8243 H         1 <0>         0.0763
     35 H7          5.9033   -2.4000   -0.9555 H         1 <0>         0.0757
     36 H8          7.9894   -1.0596   -0.9654 H         1 <0>         0.0988
     37 H9          8.0051   -1.0708    0.8144 H         1 <0>         0.0984
     38 H10         8.1445   -3.5464    0.7977 H         1 <0>         0.1361
     39 H11         8.1289   -3.5353   -0.9822 H         1 <0>         0.1386
     40 H12         3.6150    6.6397   -0.0044 H         1 <0>         0.1521
     41 H13         1.1626    6.5024    0.0125 H         1 <0>         0.1524
     42 H14        -0.9501   -1.8012    0.5144 H         1 <0>         0.1129
     43 H15        -1.9955   -0.3608    0.5323 H         1 <0>         0.1200
     44 H16        -1.8431   -0.2193   -1.9386 H         1 <0>         0.1414
     45 H17        -0.7976   -1.6598   -1.9565 H         1 <0>         0.1347
     46 H18        -3.4819   -1.3917   -3.3111 H         1 <0>         0.1401
     47 H19        -2.4364   -2.8322   -3.3291 H         1 <0>         0.1440
     48 H20        -4.7474   -3.5150   -3.7611 H         1 <0>         0.0980
     49 H21        -4.2558   -4.1077   -2.1564 H         1 <0>         0.0733
     50 H22        -6.3787   -3.0147   -2.0895 H         1 <0>         0.4127
     51 H23        -0.6270    4.2791    0.9039 H         1 <0>         0.3969
     52 H24         5.6546    4.6372    0.8598 H         1 <0>         0.3999
     53 N4          9.8792   -2.7577   -0.0806 N.4       1 <0>        -0.6469
     54 H25        10.1388   -2.2636    0.7812 H         1 <0>         0.4420
     55 N5         -2.8032   -2.0225   -1.4173 N.4       1 <0>        -0.5135
     56 H26        -3.5629   -1.5442   -0.9189 H         1 <0>         0.4440
     57 H27        -2.5780   -2.9010   -0.9360 H         1 <0>         0.4312
@<TRIPOS>BOND
     1    1    6 ar
     2    1    2 ar
     3    1   31 1
     4    2    3 ar
     5    2   32 1
     6    3   23 1
     7    3    4 ar
     8    4   21 1
     9    4    5 ar
    10    5    6 ar
    11    5   13 1
    12    6    7 1
    13    7    8 1
    14    7   33 1
    15    8    9 1
    16    8   34 1
    17    8   35 1
    18    9   10 1
    19    9   36 1
    20    9   37 1
    21   10   38 1
    22   10   39 1
    23   10   53 1
    24   11   53 1
    25   12   53 1
    26   13   14 2
    27   13   15 1
    28   15   20 ar
    29   15   16 ar
    30   16   17 ar
    31   16   30 1
    32   17   18 ar
    33   17   40 1
    34   18   19 ar
    35   18   41 1
    36   19   20 ar
    37   19   29 1
    38   20   21 1
    39   21   22 2
    40   22   23 1
    41   23   24 1
    42   24   25 1
    43   24   42 1
    44   24   43 1
    45   25   44 1
    46   25   45 1
    47   25   55 1
    48   26   27 1
    49   26   46 1
    50   26   47 1
    51   26   55 1
    52   27   28 1
    53   27   48 1
    54   27   49 1
    55   28   50 1
    56   29   51 1
    57   30   52 1
    58   53   54 1
    59   55   56 1
    60   55   57 1
@<TRIPOS>MOLECULE
ZINC13488688
   27    27     0     0     0
SMALL
USER_CHARGES
4-[3-(azidomethyl)phenyl]-2,4-dioxo-butanoic acid
@<TRIPOS>ATOM
      1 C1          1.4315    0.0967    3.9444 C.ar      1 <0>        -0.1240
      2 C2          0.7810    0.5455    5.0809 C.ar      1 <0>        -0.0690
      3 C3         -0.3559    1.3269    4.9731 C.ar      1 <0>        -0.1745
      4 C4         -0.8494    1.6650    3.7306 C.ar      1 <0>        -0.0341
      5 C5         -0.1978    1.2160    2.5777 C.ar      1 <0>        -0.1478
      6 C6          0.9478    0.4221    2.6950 C.ar      1 <0>        -0.0335
      7 C7         -0.7181    1.5718    1.2479 C.2       1 <0>         0.3814
      8 O1         -1.7143    2.2560    1.1498 O.2       1 <0>        -0.4044
      9 C8         -0.0127    1.0858    0.0080 C.3       1 <0>        -0.2165
     10 C9         -0.7416    1.5850   -1.2129 C.2       1 <0>         0.3163
     11 O2         -1.7318    2.2654   -1.0889 O.2       1 <0>        -0.4109
     12 C10        -0.2404    1.2392   -2.5735 C.2       1 <0>         0.4302
     13 O3          0.7538    0.5561   -2.6979 O.co2     1 <0>        -0.6102
     14 O4         -0.8914    1.6850   -3.6638 O.co2     1 <0>        -0.7104
     15 C11        -1.0569    1.8093    6.2169 C.3       1 <0>         0.1202
     16 N1         -2.0661    0.8271    6.6208 N.pl3     1 <0>        -0.3648
     17 N2         -2.0012    0.3372    7.6303 N.1       1 <0>         0.2583
     18 N3         -1.9363   -0.1526    8.6399 N.1       1 <0>         0.1434
     19 H1          2.3181   -0.5131    4.0366 H         1 <0>         0.1435
     20 H2          1.1627    0.2840    6.0568 H         1 <0>         0.1287
     21 H3         -1.7367    2.2753    3.6481 H         1 <0>         0.1469
     22 H4          1.4543    0.0681    1.8093 H         1 <0>         0.1524
     23 H5          1.0193    1.4666    0.0002 H         1 <0>         0.1328
     24 H6          0.0023   -0.0141    0.0020 H         1 <0>         0.1320
     25 H7         -0.3227    1.9346    7.0263 H         1 <0>         0.1338
     26 H8         -1.5450    2.7736    6.0121 H         1 <0>         0.1601
     27 H9         -2.8874    0.5691    5.9360 H         1 <0>         0.5203
@<TRIPOS>BOND
     1    1    6 ar
     2    1    2 ar
     3    1   19 1
     4    2    3 ar
     5    2   20 1
     6    3    4 ar
     7    3   15 1
     8    4    5 ar
     9    4   21 1
    10    5    6 ar
    11    5    7 1
    12    6   22 1
    13    7    8 2
    14    7    9 1
    15    9   10 1
    16    9   23 1
    17    9   24 1
    18   10   11 2
    19   10   12 1
    20   12   13 2
    21   12   14 1
    22   15   16 1
    23   15   25 1
    24   15   26 1
    25   16   17 2
    26   16   27 1
    27   17   18 2
@<TRIPOS>MOLECULE
ZINC13488688
   26    26     0     0     0
SMALL
USER_CHARGES
4-[3-(azidomethyl)phenyl]-2,4-dioxo-butanoic acid
@<TRIPOS>ATOM
      1 C1          1.4315    0.0967    3.9444 C.ar      1 <0>        -0.1288
      2 C2          0.7810    0.5455    5.0809 C.ar      1 <0>        -0.0841
      3 C3         -0.3559    1.3269    4.9731 C.ar      1 <0>        -0.1129
      4 C4         -0.8494    1.6650    3.7306 C.ar      1 <0>        -0.0349
      5 C5         -0.1978    1.2160    2.5777 C.ar      1 <0>        -0.1537
      6 C6          0.9478    0.4221    2.6950 C.ar      1 <0>        -0.0672
      7 C7         -0.7181    1.5718    1.2479 C.2       1 <0>         0.3863
      8 O1         -1.7143    2.2560    1.1498 O.2       1 <0>        -0.4176
      9 C8         -0.0127    1.0858    0.0080 C.3       1 <0>        -0.2671
     10 C9         -0.7416    1.5850   -1.2129 C.2       1 <0>         0.3483
     11 O2         -1.7318    2.2654   -1.0889 O.2       1 <0>        -0.4115
     12 C10        -0.2404    1.2392   -2.5735 C.2       1 <0>         0.4355
     13 O3          0.7538    0.5561   -2.6979 O.co2     1 <0>        -0.6084
     14 C11        -1.0569    1.8093    6.2169 C.3       1 <0>         0.1165
     15 N1         -2.0661    0.8271    6.6208 N.2       1 <0>        -0.3688
     16 N2         -2.0012    0.3372    7.6303 N.1       1 <0>         0.2778
     17 N3         -1.9363   -0.1526    8.6399 N.1       1 <0>        -0.1899
     18 H1          2.3181   -0.5131    4.0366 H         1 <0>         0.1322
     19 H2          1.1627    0.2840    6.0568 H         1 <0>         0.1206
     20 H3         -1.7367    2.2753    3.6481 H         1 <0>         0.1401
     21 H4          1.4543    0.0681    1.8093 H         1 <0>         0.1391
     22 H5          0.6771    1.7555   -0.2672 H         1 <0>         0.1035
     23 H6          0.8546    0.4904    0.2932 H         1 <0>         0.1664
     24 H7         -0.3294    1.9335    7.0190 H         1 <0>         0.0751
     25 H8         -1.5406    2.7648    6.0140 H         1 <0>         0.1157
     26 O4         -0.8914    1.6850   -3.6638 O.co2     1 <0>        -0.7125
@<TRIPOS>BOND
     1    1    6 ar
     2    1    2 ar
     3    1   18 1
     4    2    3 ar
     5    2   19 1
     6    3    4 ar
     7    3   14 1
     8    4    5 ar
     9    4   20 1
    10    5    6 ar
    11    5    7 1
    12    6   21 1
    13    7    9 1
    14    7    8 2
    15    9   22 1
    16    9   23 1
    17    9   10 1
    18   10   12 1
    19   10   11 2
    20   12   13 2
    21   12   26 1
    22   14   15 1
    23   14   24 1
    24   14   25 1
    25   15   16 2
    26   16   17 2
@<TRIPOS>MOLECULE
ZINC13682481
   53    55     0     0     0
SMALL
USER_CHARGES
6-[(3-chloro-2-fluoro-phenyl)methyl]-1-[(1S)-1-(hydroxymethyl)-2-methyl-propyl]-7-methoxy-4-oxo-quinoline-3-carboxylic acid
@<TRIPOS>ATOM
      1 C1         -3.1804    6.1961   -1.5200 C.3       1 <0>        -0.1378
      2 C2         -1.8865    5.4152   -1.2815 C.3       1 <0>        -0.1055
      3 C3         -0.9654    5.5721   -2.4931 C.3       1 <0>        -0.1478
      4 C4         -1.1857    5.9581   -0.0345 C.3       1 <0>         0.1267
      5 H1         -1.0540    7.0357   -0.1319 H         1 <0>         0.1092
      6 C5         -2.0375    5.6580    1.2005 C.3       1 <0>         0.0630
      7 O1         -3.2515    6.4090    1.1359 O.3       1 <0>        -0.5611
      8 N1          0.1238    5.3169    0.1079 N.pl3     1 <0>        -0.4882
      9 C6          0.1704    4.0009    0.3539 C.2       1 <0>         0.1640
     10 C7          1.3629    3.3225    0.5007 C.2       1 <0>        -0.2806
     11 C8          2.6262    4.0705    0.3891 C.2       1 <0>         0.4211
     12 O2          3.7049    3.5175    0.5158 O.2       1 <0>        -0.4579
     13 C9          2.5317    5.5142    0.1122 C.ar      1 <0>        -0.2265
     14 C10         1.2560    6.0932   -0.0174 C.ar      1 <0>         0.2447
     15 C11         1.1531    7.4558   -0.2726 C.ar      1 <0>        -0.2788
     16 C12         2.3000    8.2213   -0.3942 C.ar      1 <0>         0.1921
     17 C13         3.5587    7.6382   -0.2641 C.ar      1 <0>        -0.1653
     18 C14         3.6777    6.3010   -0.0139 C.ar      1 <0>         0.0164
     19 C15         4.7958    8.4881   -0.3998 C.3       1 <0>        -0.0232
     20 C16         5.1127    9.1293    0.9267 C.ar      1 <0>        -0.0974
     21 C17         6.0923    8.5893    1.7390 C.ar      1 <0>        -0.0813
     22 C18         6.3840    9.1770    2.9556 C.ar      1 <0>        -0.1183
     23 C19         5.6968   10.3057    3.3621 C.ar      1 <0>        -0.0905
     24 C20         4.7168   10.8482    2.5513 C.ar      1 <0>        -0.0788
     25 C21         4.4272   10.2622    1.3292 C.ar      1 <0>         0.1187
     26 F1          3.4736   10.7939    0.5334 F         1 <0>        -0.1051
     27 Cl1         3.8544   12.2661    3.0608 Cl        1 <0>        -0.0583
     28 O3          2.1974    9.5518   -0.6429 O.3       1 <0>        -0.2917
     29 C22         0.8790   10.0891   -0.7655 C.3       1 <0>         0.0254
     30 C23         1.3718    1.8778    0.7700 C.2       1 <0>         0.5073
     31 O4          2.4281    1.2898    0.8976 O.co2     1 <0>        -0.6091
     32 H2         -2.9673    7.2650   -1.5073 H         1 <0>         0.0503
     33 H3         -3.5979    5.9203   -2.4884 H         1 <0>         0.0516
     34 H4         -3.8978    5.9592   -0.7343 H         1 <0>         0.0782
     35 H5         -2.1200    4.3604   -1.1369 H         1 <0>         0.0814
     36 H6         -0.0436    5.0158   -2.3232 H         1 <0>         0.0583
     37 H7         -1.4646    5.1854   -3.3815 H         1 <0>         0.0591
     38 H8         -0.7318    6.6269   -2.6378 H         1 <0>         0.0519
     39 H9         -2.2700    4.5935    1.2316 H         1 <0>         0.0638
     40 H10        -1.4858    5.9357    2.0986 H         1 <0>         0.0550
     41 H11        -3.8419    6.2677    1.8885 H         1 <0>         0.3822
     42 H12        -0.7562    3.4529    0.4406 H         1 <0>         0.1685
     43 H13         0.1814    7.9158   -0.3755 H         1 <0>         0.1383
     44 H14         4.6556    5.8535    0.0858 H         1 <0>         0.1432
     45 H15         5.6333    7.8636   -0.7108 H         1 <0>         0.0899
     46 H16         4.6238    9.2635   -1.1463 H         1 <0>         0.0899
     47 H17         6.6297    7.7075    1.4230 H         1 <0>         0.1404
     48 H18         7.1493    8.7539    3.5894 H         1 <0>         0.1383
     49 H19         5.9256   10.7640    4.3129 H         1 <0>         0.1390
     50 H20         0.3610    9.5966   -1.5884 H         1 <0>         0.0543
     51 H21         0.3306    9.9213    0.1614 H         1 <0>         0.0541
     52 H22         0.9397   11.1594   -0.9630 H         1 <0>         0.0993
     53 O5          0.2086    1.2047    0.8756 O.co2     1 <0>        -0.7725
@<TRIPOS>BOND
     1    1    2 1
     2    1   32 1
     3    1   33 1
     4    1   34 1
     5    2    3 1
     6    2    4 1
     7    2   35 1
     8    3   36 1
     9    3   37 1
    10    3   38 1
    11    4    5 1
    12    4    6 1
    13    4    8 1
    14    6    7 1
    15    6   39 1
    16    6   40 1
    17    7   41 1
    18    8   14 1
    19    8    9 1
    20    9   10 2
    21    9   42 1
    22   10   11 1
    23   10   30 1
    24   11   12 2
    25   11   13 1
    26   13   18 ar
    27   13   14 ar
    28   14   15 ar
    29   15   16 ar
    30   15   43 1
    31   16   17 ar
    32   16   28 1
    33   17   18 ar
    34   17   19 1
    35   18   44 1
    36   19   20 1
    37   19   45 1
    38   19   46 1
    39   20   25 ar
    40   20   21 ar
    41   21   22 ar
    42   21   47 1
    43   22   23 ar
    44   22   48 1
    45   23   24 ar
    46   23   49 1
    47   24   25 ar
    48   24   27 1
    49   25   26 1
    50   28   29 1
    51   29   50 1
    52   29   51 1
    53   29   52 1
    54   30   31 2
    55   30   53 1
@<TRIPOS>MOLECULE
ZINC16889962
   10    10     0     0     0
SMALL
USER_CHARGES

@<TRIPOS>ATOM
      1 C1         -0.0160    1.3295    0.0094 C.2       1 <0>         0.2313
      2 N1         -1.2556    1.7403    0.0177 N.2       1 <0>        -0.3285
      3 H1         -2.5422   -2.0378    0.0023 H         1 <0>         0.4129
      4 N2         -2.0676    0.5947    0.0155 N.pl3     1 <0>        -0.5169
      5 H2         -3.0373    0.5693    0.0198 H         1 <0>         0.4367
      6 C2         -1.2306   -0.4643    0.0056 C.2       1 <0>         0.5331
      7 N3         -1.6026   -1.7966   -0.0005 N.pl3     1 <0>        -0.8257
      8 N4          0.0021   -0.0041    0.0020 N.2       1 <0>        -0.5878
      9 H3          0.8552    1.9677    0.0045 H         1 <0>         0.2193
     10 H4         -0.9240   -2.4896   -0.0076 H         1 <0>         0.4256
@<TRIPOS>BOND
     1    1    8 1
     2    1    9 1
     3    1    2 2
     4    2    4 1
     5    3    7 1
     6    4    6 1
     7    4    5 1
     8    6    7 1
     9    6    8 2
    10    7   10 1
@<TRIPOS>MOLECULE
ZINC01209919
   45    49     0     0     0
SMALL
USER_CHARGES

@<TRIPOS>ATOM
      1 C1          0.2676    0.8546   -2.3088 C.ar      1 <0>        -0.1125
      2 C2          1.4564    1.5801   -2.3371 C.ar      1 <0>        -0.1105
      3 C3          2.5977    1.0762   -1.7892 C.ar      1 <0>        -0.1195
      4 C4          2.5787   -0.1893   -1.1875 C.ar      1 <0>        -0.0096
      5 C5          1.3712   -0.9284   -1.1571 C.ar      1 <0>        -0.0617
      6 C6          0.2129   -0.3776   -1.7327 C.ar      1 <0>        -0.1086
      7 C7          1.3507   -2.1976   -0.5535 C.ar      1 <0>        -0.0660
      8 C8          2.4863   -2.7112   -0.0019 C.ar      1 <0>        -0.1332
      9 C9          3.6800   -2.0012   -0.0215 C.ar      1 <0>        -0.0661
     10 C10         3.7463   -0.7453   -0.6070 C.ar      1 <0>        -0.1319
     11 C11         5.0165    0.0029   -0.6247 C.2       1 <0>         0.5681
     12 O1          5.0932    1.0567   -1.2270 O.2       1 <0>        -0.5092
     13 N1          6.0927   -0.4809    0.0266 N.am      1 <0>        -0.6679
     14 C12         7.2640    0.2825    0.1071 C.ar      1 <0>         0.1373
     15 C13         7.1842    1.6666    0.2151 C.ar      1 <0>        -0.0747
     16 C14         8.3343    2.4266    0.2945 C.ar      1 <0>        -0.1254
     17 C15         9.5772    1.8138    0.2675 C.ar      1 <0>         0.1344
     18 C16         9.6656    0.4202    0.1594 C.ar      1 <0>        -0.0411
     19 C17         8.4994   -0.3430    0.0847 C.ar      1 <0>        -0.0743
     20 C18        10.9865   -0.2390    0.1301 C.2       1 <0>         0.2982
     21 N2         11.1792   -1.5301    0.0261 N.2       1 <0>        -0.4701
     22 C19        12.5151   -1.7738    0.0318 C.ar      1 <0>         0.0236
     23 C20        13.2834   -2.9378   -0.0504 C.ar      1 <0>        -0.0616
     24 C21        14.6571   -2.8527   -0.0166 C.ar      1 <0>        -0.1182
     25 C22        15.2820   -1.6196    0.0984 C.ar      1 <0>        -0.0915
     26 C23        14.5362   -0.4618    0.1805 C.ar      1 <0>        -0.0918
     27 C24        13.1520   -0.5277    0.1481 C.ar      1 <0>         0.0090
     28 O2         12.1699    0.3997    0.2005 O.3       1 <0>        -0.1931
     29 O3         10.7072    2.5633    0.3453 O.3       1 <0>        -0.4838
     30 H1         -0.6246    1.2777   -2.7462 H         1 <0>         0.1253
     31 H2          1.4739    2.5556   -2.8001 H         1 <0>         0.1259
     32 H3          3.5127    1.6492   -1.8188 H         1 <0>         0.1682
     33 H4         -0.7154   -0.9293   -1.7181 H         1 <0>         0.1301
     34 H5          0.4333   -2.7667   -0.5264 H         1 <0>         0.1341
     35 H6          2.4574   -3.6875    0.4589 H         1 <0>         0.1335
     36 H7          4.5653   -2.4313    0.4232 H         1 <0>         0.1282
     37 H8          6.0559   -1.3578    0.4396 H         1 <0>         0.4135
     38 H9          6.2184    2.1493    0.2366 H         1 <0>         0.1466
     39 H10         8.2651    3.5011    0.3775 H         1 <0>         0.1459
     40 H11         8.5604   -1.4184    0.0053 H         1 <0>         0.1487
     41 H12        12.8017   -3.9003   -0.1397 H         1 <0>         0.1372
     42 H13        15.2521   -3.7519   -0.0797 H         1 <0>         0.1394
     43 H14        16.3603   -1.5655    0.1243 H         1 <0>         0.1425
     44 H15        15.0301    0.4944    0.2703 H         1 <0>         0.1372
     45 H16        11.0196    2.7114    1.2484 H         1 <0>         0.3955
@<TRIPOS>BOND
     1    1    6 ar
     2    1    2 ar
     3    1   30 1
     4    2    3 ar
     5    2   31 1
     6    3    4 ar
     7    3   32 1
     8    4   10 ar
     9    4    5 ar
    10    5    6 ar
    11    5    7 ar
    12    6   33 1
    13    7    8 ar
    14    7   34 1
    15    8    9 ar
    16    8   35 1
    17    9   10 ar
    18    9   36 1
    19   10   11 1
    20   11   12 2
    21   11   13 am
    22   13   14 1
    23   13   37 1
    24   14   19 ar
    25   14   15 ar
    26   15   16 ar
    27   15   38 1
    28   16   17 ar
    29   16   39 1
    30   17   18 ar
    31   17   29 1
    32   18   19 ar
    33   18   20 1
    34   19   40 1
    35   20   28 1
    36   20   21 2
    37   21   22 1
    38   22   27 ar
    39   22   23 ar
    40   23   24 ar
    41   23   41 1
    42   24   25 ar
    43   24   42 1
    44   25   26 ar
    45   25   43 1
    46   26   27 ar
    47   26   44 1
    48   27   28 1
    49   29   45 1
@<TRIPOS>MOLECULE
ZINC38145807
   50    51     0     0     0
SMALL
USER_CHARGES

@<TRIPOS>ATOM
      1 C1         -0.0166    1.3733    0.0096 C.ar      1 <0>        -0.0952
      2 C2          1.1861    2.0890    0.0020 C.ar      1 <0>        -0.0408
      3 C3          2.4053    1.4009   -0.0134 C.ar      1 <0>        -0.1124
      4 C4          2.4145    0.0204   -0.0209 C.ar      1 <0>         0.0754
      5 C5          1.2117   -0.6856   -0.0137 C.ar      1 <0>         0.0753
      6 C6          0.0021   -0.0041    0.0020 C.ar      1 <0>        -0.1271
      7 O1          1.2237   -2.0437   -0.0220 O.3       1 <0>        -0.4894
      8 O2          3.5969   -0.6514   -0.0358 O.3       1 <0>        -0.4889
      9 C7          1.1693    3.5585    0.0095 C.2       1 <0>        -0.0548
     10 C8         -0.0083    4.2205    0.0239 C.2       1 <0>        -0.1351
     11 C9         -0.0245    5.6381    0.0312 C.2       1 <0>         0.4900
     12 O3          1.0220    6.2584    0.0245 O.2       1 <0>        -0.5241
     13 O4         -1.2006    6.2993    0.0455 O.3       1 <0>        -0.3019
     14 C10        -1.1422    7.7271    0.0522 C.3       1 <0>         0.0440
     15 H1         -0.2333    8.0512    0.5591 H         1 <0>         0.0962
     16 C11        -1.1349    8.2362   -1.3662 C.2       1 <0>         0.5001
     17 O5         -1.2678    7.4568   -2.2943 O.co2     1 <0>        -0.6825
     18 O6         -0.9962    9.4274   -1.5857 O.co2     1 <0>        -0.6936
     19 C12        -2.3627    8.2841    0.7877 C.3       1 <0>         0.0440
     20 H2         -2.2739    9.3673    0.8705 H         1 <0>         0.0962
     21 O7         -3.5478    7.9577    0.0590 O.3       1 <0>        -0.3020
     22 C13        -4.5832    8.8174    0.1566 C.2       1 <0>         0.4900
     23 O8         -4.4812    9.8170    0.8422 O.2       1 <0>        -0.5240
     24 C14        -5.7900    8.5556   -0.5400 C.2       1 <0>        -0.1351
     25 C15        -6.8267    9.4164   -0.4423 C.2       1 <0>        -0.0549
     26 C16        -8.0775    9.1451   -1.1644 C.ar      1 <0>        -0.0407
     27 C17        -9.1511   10.0387   -1.0692 C.ar      1 <0>        -0.1124
     28 C18       -10.3235    9.7786   -1.7503 C.ar      1 <0>         0.0754
     29 C19       -10.4368    8.6280   -2.5303 C.ar      1 <0>         0.0753
     30 C20        -9.3728    7.7409   -2.6250 C.ar      1 <0>        -0.1271
     31 C21        -8.1971    7.9956   -1.9538 C.ar      1 <0>        -0.0953
     32 O9        -11.5914    8.3743   -3.1990 O.3       1 <0>        -0.4895
     33 O10       -11.3684   10.6444   -1.6603 O.3       1 <0>        -0.4888
     34 C22        -2.4378    7.6793    2.1660 C.2       1 <0>         0.5001
     35 O11        -1.5647    7.9153    2.9836 O.co2     1 <0>        -0.6937
     36 O12        -3.3716    6.9541    2.4634 O.co2     1 <0>        -0.6824
     37 H3         -0.9589    1.9007    0.0259 H         1 <0>         0.1432
     38 H4          3.3361    1.9486   -0.0197 H         1 <0>         0.1389
     39 H5         -0.9266   -0.5553    0.0079 H         1 <0>         0.1360
     40 H6          1.2356   -2.4423    0.8590 H         1 <0>         0.3831
     41 H7          3.9473   -0.8504    0.8433 H         1 <0>         0.3835
     42 H8          2.0983    4.1092    0.0036 H         1 <0>         0.1408
     43 H9         -0.9373    3.6698    0.0298 H         1 <0>         0.1394
     44 H10        -5.8806    7.6681   -1.1487 H         1 <0>         0.1395
     45 H11        -6.7361   10.3039    0.1664 H         1 <0>         0.1408
     46 H12        -9.0625   10.9291   -0.4644 H         1 <0>         0.1389
     47 H13        -9.4658    6.8509   -3.2297 H         1 <0>         0.1360
     48 H14        -7.3695    7.3063   -2.0331 H         1 <0>         0.1432
     49 H15       -11.6184    8.7445   -4.0919 H         1 <0>         0.3831
     50 H16       -11.3630   11.3387   -2.3333 H         1 <0>         0.3835
@<TRIPOS>BOND
     1    1    6 ar
     2    1    2 ar
     3    1   37 1
     4    2    3 ar
     5    2    9 1
     6    3    4 ar
     7    3   38 1
     8    4    5 ar
     9    4    8 1
    10    5    6 ar
    11    5    7 1
    12    6   39 1
    13    7   40 1
    14    8   41 1
    15    9   10 2
    16    9   42 1
    17   10   11 1
    18   10   43 1
    19   11   12 2
    20   11   13 1
    21   13   14 1
    22   14   15 1
    23   14   16 1
    24   14   19 1
    25   16   17 2
    26   16   18 1
    27   19   20 1
    28   19   21 1
    29   19   34 1
    30   21   22 1
    31   22   23 2
    32   22   24 1
    33   24   25 2
    34   24   44 1
    35   25   26 1
    36   25   45 1
    37   26   31 ar
    38   26   27 ar
    39   27   28 ar
    40   27   46 1
    41   28   29 ar
    42   28   33 1
    43   29   30 ar
    44   29   32 1
    45   30   31 ar
    46   30   47 1
    47   31   48 1
    48   32   49 1
    49   33   50 1
    50   34   35 2
    51   34   36 1
@<TRIPOS>MOLECULE
ZINC01629865
   40    42     0     0     0
SMALL
USER_CHARGES
chloro-hydroxy-methoxy-trimethyl-oxo-BLAHcarbaldehyde
@<TRIPOS>ATOM
      1 C1          2.4645    3.8827   -0.0824 C.3       1 <0>        -0.1181
      2 C2          1.6146    4.9374   -0.7430 C.ar      1 <0>        -0.0201
      3 C3          2.2008    5.8419   -1.6013 C.ar      1 <0>        -0.1988
      4 C4          1.4216    6.8137   -2.2106 C.ar      1 <0>         0.1630
      5 C5          0.0651    6.8655   -1.9495 C.ar      1 <0>        -0.1203
      6 C6         -0.5336    5.9515   -1.0788 C.ar      1 <0>         0.1388
      7 C7          0.2442    4.9836   -0.4759 C.ar      1 <0>         0.0030
      8 O1         -0.2176    4.0401    0.3786 O.3       1 <0>        -0.2517
      9 C8         -1.3245    3.3170    0.1337 C.ar      1 <0>         0.2142
     10 C9         -1.2913    1.9219    0.0140 C.ar      1 <0>        -0.2268
     11 C10        -2.5051    1.2149   -0.0915 C.ar      1 <0>         0.2362
     12 C11        -3.7128    1.9017   -0.1211 C.ar      1 <0>        -0.1013
     13 C12        -3.7389    3.2796   -0.0603 C.ar      1 <0>         0.0504
     14 C13        -2.5444    3.9940    0.0547 C.ar      1 <0>        -0.2236
     15 C14        -2.5291    5.4657    0.0648 C.2       1 <0>         0.5516
     16 O2         -3.1006    6.0823    0.9424 O.2       1 <0>        -0.3987
     17 O3         -1.8751    6.1158   -0.9082 O.3       1 <0>        -0.2924
     18 C15        -5.0543    4.0127   -0.1175 C.3       1 <0>        -0.1353
     19 Cl1        -5.2024    1.0175   -0.2351 Cl        1 <0>        -0.0234
     20 O4         -2.4951   -0.1375   -0.1647 O.3       1 <0>        -0.4603
     21 C16        -0.0130    1.2078    0.0046 C.2       1 <0>         0.3834
     22 O5          0.0042   -0.0055    0.0006 O.2       1 <0>        -0.4304
     23 C17        -0.7794    7.9228   -2.6128 C.3       1 <0>        -0.1009
     24 O6          1.9888    7.7111   -3.0601 O.3       1 <0>        -0.3028
     25 C18         3.3959    7.5954   -3.2811 C.3       1 <0>         0.0230
     26 H1          2.7724    4.2295    0.9040 H         1 <0>         0.0864
     27 H2          1.8884    2.9630    0.0193 H         1 <0>         0.0733
     28 H3          3.3474    3.6927   -0.6927 H         1 <0>         0.0785
     29 H4          3.2616    5.7945   -1.7982 H         1 <0>         0.1487
     30 H5         -5.4419    4.1430    0.8929 H         1 <0>         0.1016
     31 H6         -4.9062    4.9893   -0.5785 H         1 <0>         0.0795
     32 H7         -5.7662    3.4363   -0.7082 H         1 <0>         0.0921
     33 H8         -2.5407   -0.5783    0.6949 H         1 <0>         0.4107
     34 H9          0.9145    1.7610   -0.0031 H         1 <0>         0.1174
     35 H10        -0.8067    8.8130   -1.9845 H         1 <0>         0.0750
     36 H11        -0.3501    8.1753   -3.5824 H         1 <0>         0.0773
     37 H12        -1.7923    7.5447   -2.7513 H         1 <0>         0.0730
     38 H13         3.9233    7.7142   -2.3346 H         1 <0>         0.0607
     39 H14         3.6184    6.6141   -3.7004 H         1 <0>         0.0604
     40 H15         3.7193    8.3696   -3.9769 H         1 <0>         0.1067
@<TRIPOS>BOND
     1    1    2 1
     2    1   26 1
     3    1   27 1
     4    1   28 1
     5    2    7 ar
     6    2    3 ar
     7    3    4 ar
     8    3   29 1
     9    4    5 ar
    10    4   24 1
    11    5    6 ar
    12    5   23 1
    13    6   17 1
    14    6    7 ar
    15    7    8 1
    16    8    9 1
    17    9   14 ar
    18    9   10 ar
    19   10   11 ar
    20   10   21 1
    21   11   12 ar
    22   11   20 1
    23   12   13 ar
    24   12   19 1
    25   13   14 ar
    26   13   18 1
    27   14   15 1
    28   15   16 2
    29   15   17 1
    30   18   30 1
    31   18   31 1
    32   18   32 1
    33   20   33 1
    34   21   22 2
    35   21   34 1
    36   23   35 1
    37   23   36 1
    38   23   37 1
    39   24   25 1
    40   25   38 1
    41   25   39 1
    42   25   40 1
@<TRIPOS>MOLECULE
ZINC03780340
   54    61     0     0     0
SMALL
USER_CHARGES

@<TRIPOS>ATOM
      1 C1         -0.0183    1.5018    0.0103 C.3       1 <0>        -0.1343
      2 C2          0.0021   -0.0041    0.0020 C.ar      1 <0>        -0.0117
      3 C3         -0.0548   -0.6265   -1.2322 C.ar      1 <0>        -0.1561
      4 C4          0.0423   -2.0081   -1.3580 C.ar      1 <0>         0.1912
      5 C5          0.2687   -2.7865   -0.2197 C.ar      1 <0>        -0.1794
      6 C6          0.3275   -2.1471    1.0349 C.ar      1 <0>         0.0101
      7 C7          0.0235   -0.7668    1.1650 C.ar      1 <0>        -0.0358
      8 C8         -0.3007   -0.2785    2.5070 C.ar      1 <0>        -0.0338
      9 C9         -1.2665    0.6752    2.8209 C.ar      1 <0>        -0.0142
     10 C10        -1.2867    1.2661    4.0674 C.ar      1 <0>        -0.1580
     11 C11        -0.4714    0.8089    5.0987 C.ar      1 <0>         0.1913
     12 C12         0.3146   -0.3273    4.8901 C.ar      1 <0>        -0.1827
     13 C13         0.3125   -0.9218    3.6120 C.ar      1 <0>         0.0070
     14 C14         0.8801   -2.2552    3.4413 C.ar      1 <0>        -0.0121
     15 C15         0.7605   -2.9018    2.2059 C.ar      1 <0>        -0.0145
     16 C16         1.0580   -4.3257    2.1086 C.ar      1 <0>         0.0248
     17 C17         1.5790   -5.0116    3.2284 C.ar      1 <0>        -0.0698
     18 C18         1.6198   -6.4153    3.1802 C.ar      1 <0>         0.1999
     19 C19         1.3943   -7.0793    1.9870 C.ar      1 <0>        -0.1918
     20 C20         1.0304   -6.3896    0.8372 C.ar      1 <0>         0.2090
     21 C21         0.8451   -5.0024    0.8857 C.ar      1 <0>        -0.1930
     22 C22         0.4370   -4.2442   -0.3027 C.2       1 <0>         0.4375
     23 O1          0.2360   -4.8224   -1.3562 O.2       1 <0>        -0.4172
     24 O2          0.8589   -7.0699   -0.3219 O.3       1 <0>        -0.4734
     25 O3          1.8092   -7.1545    4.3012 O.3       1 <0>        -0.4693
     26 C23         2.0419   -4.2390    4.3823 C.ar      1 <0>        -0.0675
     27 C24         1.5760   -2.9127    4.5400 C.ar      1 <0>         0.0229
     28 C25         1.7638   -2.2242    5.7609 C.ar      1 <0>        -0.1924
     29 C26         1.1439   -0.9082    5.9559 C.2       1 <0>         0.4375
     30 O4          1.3190   -0.2963    6.9945 O.2       1 <0>        -0.4154
     31 C27         2.5510   -2.8139    6.7570 C.ar      1 <0>         0.2093
     32 C28         3.1465   -4.0483    6.5262 C.ar      1 <0>        -0.1937
     33 C29         2.9414   -4.7327    5.3400 C.ar      1 <0>         0.1998
     34 O5          3.6804   -5.8458    5.1072 O.3       1 <0>        -0.4711
     35 O6          2.7393   -2.1950    7.9469 O.3       1 <0>        -0.4738
     36 O7         -0.4506    1.4619    6.2838 O.3       1 <0>        -0.4725
     37 C30        -2.4068    0.9973    1.8857 C.3       1 <0>        -0.1315
     38 O8         -0.0840   -2.5835   -2.5775 O.3       1 <0>        -0.4742
     39 H1          1.0042    1.8791    0.0026 H         1 <0>         0.0854
     40 H2         -0.5455    1.8629   -0.8728 H         1 <0>         0.0810
     41 H3         -0.5285    1.8533    0.9071 H         1 <0>         0.0822
     42 H4         -0.1792   -0.0181   -2.1166 H         1 <0>         0.1459
     43 H5         -1.9456    2.1046    4.2421 H         1 <0>         0.1467
     44 H6          1.5080   -8.1534    1.9505 H         1 <0>         0.1529
     45 H7         -0.0435   -7.3884   -0.4612 H         1 <0>         0.4037
     46 H8          0.9905   -7.3986    4.7543 H         1 <0>         0.3985
     47 H9          3.7779   -4.4856    7.2860 H         1 <0>         0.1529
     48 H10         4.5367   -5.6700    4.6938 H         1 <0>         0.4000
     49 H11         2.0795   -2.4213    8.6167 H         1 <0>         0.4029
     50 H12        -1.1024    1.1403    6.9216 H         1 <0>         0.3992
     51 H13        -3.2535    0.3479    2.1081 H         1 <0>         0.0863
     52 H14        -2.7024    2.0380    2.0182 H         1 <0>         0.0808
     53 H15        -2.0878    0.8384    0.8556 H         1 <0>         0.0794
     54 H16         0.7509   -2.6780   -3.0562 H         1 <0>         0.4010
@<TRIPOS>BOND
     1    1    2 1
     2    1   39 1
     3    1   40 1
     4    1   41 1
     5    2    7 ar
     6    2    3 ar
     7    3    4 ar
     8    3   42 1
     9    4    5 ar
    10    4   38 1
    11    5   22 1
    12    5    6 ar
    13    6   15 ar
    14    6    7 ar
    15    7    8 ar
    16    8   13 ar
    17    8    9 ar
    18    9   10 ar
    19    9   37 1
    20   10   11 ar
    21   10   43 1
    22   11   12 ar
    23   11   36 1
    24   12   29 1
    25   12   13 ar
    26   13   14 ar
    27   14   27 ar
    28   14   15 ar
    29   15   16 ar
    30   16   21 ar
    31   16   17 ar
    32   17   18 ar
    33   17   26 ar
    34   18   19 ar
    35   18   25 1
    36   19   20 ar
    37   19   44 1
    38   20   21 ar
    39   20   24 1
    40   21   22 1
    41   22   23 2
    42   24   45 1
    43   25   46 1
    44   26   33 ar
    45   26   27 ar
    46   27   28 ar
    47   28   29 1
    48   28   31 ar
    49   29   30 2
    50   31   32 ar
    51   31   35 1
    52   32   33 ar
    53   32   47 1
    54   33   34 1
    55   34   48 1
    56   35   49 1
    57   36   50 1
    58   37   51 1
    59   37   52 1
    60   37   53 1
    61   38   54 1
@<TRIPOS>MOLECULE
ZINC38145808
   50    51     0     0     0
SMALL
USER_CHARGES

@<TRIPOS>ATOM
      1 C1         -0.0166    1.3733    0.0096 C.ar      1 <0>        -0.0953
      2 C2          1.1861    2.0890    0.0020 C.ar      1 <0>        -0.0407
      3 C3          2.4053    1.4009   -0.0134 C.ar      1 <0>        -0.1124
      4 C4          2.4145    0.0204   -0.0209 C.ar      1 <0>         0.0755
      5 C5          1.2117   -0.6856   -0.0137 C.ar      1 <0>         0.0752
      6 C6          0.0021   -0.0041    0.0020 C.ar      1 <0>        -0.1272
      7 O1          1.2237   -2.0437   -0.0220 O.3       1 <0>        -0.4892
      8 O2          3.5969   -0.6514   -0.0358 O.3       1 <0>        -0.4887
      9 C7          1.1693    3.5585    0.0095 C.2       1 <0>        -0.0550
     10 C8         -0.0083    4.2205    0.0239 C.2       1 <0>        -0.1350
     11 C9         -0.0245    5.6381    0.0312 C.2       1 <0>         0.4899
     12 O3          1.0220    6.2584    0.0245 O.2       1 <0>        -0.5240
     13 O4         -1.2006    6.2993    0.0455 O.3       1 <0>        -0.3020
     14 C10        -1.1422    7.7271    0.0522 C.3       1 <0>         0.0440
     15 H1         -0.2429    8.0564   -0.4685 H         1 <0>         0.0962
     16 C11        -1.1083    8.2219    1.4752 C.2       1 <0>         0.5001
     17 O5         -0.9654    9.4109    1.7040 O.co2     1 <0>        -0.6932
     18 O6         -1.2239    7.4331    2.3977 O.co2     1 <0>        -0.6829
     19 C12        -2.3762    8.2914   -0.6548 C.3       1 <0>         0.0440
     20 H2         -2.2889    9.3754   -0.7283 H         1 <0>         0.0963
     21 O7         -3.5475    7.9575    0.0926 O.3       1 <0>        -0.3020
     22 C13        -4.5845    8.8181    0.0231 C.2       1 <0>         0.4899
     23 O8         -4.4952    9.8246   -0.6542 O.2       1 <0>        -0.5239
     24 C14        -5.7780    8.5492    0.7395 C.2       1 <0>        -0.1349
     25 C15        -6.8163    9.4108    0.6699 C.2       1 <0>        -0.0550
     26 C16        -8.0534    9.1321    1.4124 C.ar      1 <0>        -0.0406
     27 C17        -9.1327   10.0207    1.3372 C.ar      1 <0>        -0.1124
     28 C18       -10.2925    9.7532    2.0367 C.ar      1 <0>         0.0755
     29 C19       -10.3871    8.6006    2.8162 C.ar      1 <0>         0.0751
     30 C20        -9.3171    7.7189    2.8919 C.ar      1 <0>        -0.1271
     31 C21        -8.1583    7.9747    2.1923 C.ar      1 <0>        -0.0954
     32 O9        -11.5291    8.3400    3.5037 O.3       1 <0>        -0.4893
     33 O10       -11.3429   10.6141    1.9660 O.3       1 <0>        -0.4887
     34 C22        -2.4771    7.7005   -2.0374 C.2       1 <0>         0.5001
     35 O11        -3.4164    6.9782   -2.3246 O.co2     1 <0>        -0.6829
     36 O12        -1.6194    7.9448   -2.8688 O.co2     1 <0>        -0.6932
     37 H3         -0.9589    1.9007    0.0259 H         1 <0>         0.1431
     38 H4          3.3361    1.9486   -0.0197 H         1 <0>         0.1390
     39 H5         -0.9266   -0.5553    0.0079 H         1 <0>         0.1359
     40 H6          1.2356   -2.4423    0.8590 H         1 <0>         0.3828
     41 H7          3.9473   -0.8504    0.8433 H         1 <0>         0.3834
     42 H8          2.0983    4.1092    0.0036 H         1 <0>         0.1409
     43 H9         -0.9373    3.6698    0.0298 H         1 <0>         0.1394
     44 H10        -5.8573    7.6556    1.3408 H         1 <0>         0.1394
     45 H11        -6.7370   10.3044    0.0685 H         1 <0>         0.1409
     46 H12        -9.0581   10.9133    0.7338 H         1 <0>         0.1390
     47 H13        -9.3951    6.8281    3.4975 H         1 <0>         0.1359
     48 H14        -7.3294    7.2847    2.2492 H         1 <0>         0.1432
     49 H15       -12.1768    7.8206    3.0080 H         1 <0>         0.3828
     50 H16       -11.9636   10.4193    1.2505 H         1 <0>         0.3834
@<TRIPOS>BOND
     1    1    6 ar
     2    1    2 ar
     3    1   37 1
     4    2    3 ar
     5    2    9 1
     6    3    4 ar
     7    3   38 1
     8    4    5 ar
     9    4    8 1
    10    5    6 ar
    11    5    7 1
    12    6   39 1
    13    7   40 1
    14    8   41 1
    15    9   10 2
    16    9   42 1
    17   10   11 1
    18   10   43 1
    19   11   12 2
    20   11   13 1
    21   13   14 1
    22   14   15 1
    23   14   16 1
    24   14   19 1
    25   16   17 2
    26   16   18 1
    27   19   20 1
    28   19   21 1
    29   19   34 1
    30   21   22 1
    31   22   23 2
    32   22   24 1
    33   24   25 2
    34   24   44 1
    35   25   26 1
    36   25   45 1
    37   26   31 ar
    38   26   27 ar
    39   27   28 ar
    40   27   46 1
    41   28   29 ar
    42   28   33 1
    43   29   30 ar
    44   29   32 1
    45   30   31 ar
    46   30   47 1
    47   31   48 1
    48   32   49 1
    49   33   50 1
    50   34   35 2
    51   34   36 1
@<TRIPOS>MOLECULE
ZINC03874832
   28    30     0     0     0
SMALL
USER_CHARGES

@<TRIPOS>ATOM
      1 C1         -0.0168    1.3868    0.0097 C.ar      1 <0>        -0.0582
      2 C2          1.1714    2.0959    0.0021 C.ar      1 <0>        -0.1115
      3 C3          2.3869    1.4323   -0.0135 C.ar      1 <0>         0.1043
      4 C4          2.4270    0.0334   -0.0214 C.ar      1 <0>         0.1352
      5 C5          1.2350   -0.6894   -0.0136 C.ar      1 <0>        -0.1353
      6 C6          0.0021   -0.0041    0.0020 C.ar      1 <0>        -0.1158
      7 C7         -1.2592   -0.7715    0.0121 C.2       1 <0>         0.4394
      8 O1         -2.3171   -0.2198   -0.2240 O.2       1 <0>        -0.4124
      9 C8         -1.2209   -2.2151    0.3113 C.ar      1 <0>        -0.1399
     10 C9         -2.3934   -2.9100    0.6117 C.ar      1 <0>         0.1553
     11 C10        -2.3375   -4.2743    0.8919 C.ar      1 <0>        -0.1092
     12 C11        -1.1338   -4.9429    0.8744 C.ar      1 <0>        -0.1075
     13 C12         0.0478   -4.2658    0.5770 C.ar      1 <0>         0.1534
     14 C13         0.0118   -2.8998    0.2941 C.ar      1 <0>        -0.1361
     15 C14         1.2512   -2.1649   -0.0210 C.2       1 <0>         0.4329
     16 O2          2.2741   -2.7679   -0.2843 O.2       1 <0>        -0.3948
     17 O3          1.2288   -4.9326    0.5628 O.3       1 <0>        -0.4777
     18 O4         -3.5835   -2.2597    0.6315 O.3       1 <0>        -0.4774
     19 O5          3.6182   -0.6152   -0.0370 O.3       1 <0>        -0.4639
     20 O6          3.5445    2.1417   -0.0208 O.3       1 <0>        -0.4802
     21 H1         -0.9595    1.9136    0.0260 H         1 <0>         0.1520
     22 H2          1.1508    3.1757    0.0081 H         1 <0>         0.1504
     23 H3         -3.2453   -4.8110    1.1248 H         1 <0>         0.1504
     24 H4         -1.1050   -6.0002    1.0931 H         1 <0>         0.1503
     25 H5          1.4590   -5.3065   -0.2988 H         1 <0>         0.4026
     26 H6         -4.0414   -2.2515   -0.2201 H         1 <0>         0.4024
     27 H7          3.9727   -0.8080    0.8418 H         1 <0>         0.3952
     28 H8          3.8884    2.3422    0.8604 H         1 <0>         0.3963
@<TRIPOS>BOND
     1    1    6 ar
     2    1    2 ar
     3    1   21 1
     4    2    3 ar
     5    2   22 1
     6    3    4 ar
     7    3   20 1
     8    4    5 ar
     9    4   19 1
    10    5   15 1
    11    5    6 ar
    12    6    7 1
    13    7    8 2
    14    7    9 1
    15    9   14 ar
    16    9   10 ar
    17   10   11 ar
    18   10   18 1
    19   11   12 ar
    20   11   23 1
    21   12   13 ar
    22   12   24 1
    23   13   14 ar
    24   13   17 1
    25   14   15 1
    26   15   16 2
    27   17   25 1
    28   18   26 1
    29   19   27 1
    30   20   28 1
@<TRIPOS>MOLECULE
ZINC00039111
   31    33     0     0     0
SMALL
USER_CHARGES

@<TRIPOS>ATOM
      1 C1          0.9742   -0.2756   -0.9644 C.ar      1 <0>        -0.0745
      2 C2          2.1570    0.4328   -0.9701 C.ar      1 <0>        -0.1346
      3 C3          2.3856    1.4156   -0.0177 C.ar      1 <0>         0.1033
      4 C4          1.4202    1.6919    0.9495 C.ar      1 <0>         0.0786
      5 C5          0.2328    0.9864    0.9617 C.ar      1 <0>        -0.0758
      6 C6          0.0021   -0.0041    0.0020 C.ar      1 <0>        -0.0456
      7 C7         -1.2635   -0.7604    0.0100 C.2       1 <0>         0.1403
      8 C8         -2.4368   -0.0754    0.1235 C.2       1 <0>        -0.0467
      9 C9         -3.6626   -0.7880    0.1323 C.2       1 <0>         0.4008
     10 O1         -4.7322   -0.2087    0.2318 O.2       1 <0>        -0.4629
     11 C10        -3.5944   -2.2557    0.0159 C.ar      1 <0>        -0.2366
     12 C11        -4.7512   -3.0365    0.0154 C.ar      1 <0>        -0.0073
     13 C12        -4.6525   -4.3943   -0.0945 C.ar      1 <0>        -0.1753
     14 C13        -3.4042   -5.0031   -0.2055 C.ar      1 <0>         0.1824
     15 C14        -2.2474   -4.2422   -0.2064 C.ar      1 <0>        -0.1738
     16 C15        -2.3310   -2.8613   -0.0960 C.ar      1 <0>         0.1711
     17 O2         -1.2180   -2.0989   -0.1002 O.3       1 <0>        -0.1986
     18 O3         -3.3214   -6.3539   -0.3130 O.3       1 <0>        -0.4899
     19 O4         -2.4315    1.2815    0.2279 O.3       1 <0>        -0.4510
     20 O5          1.6479    2.6559    1.8814 O.3       1 <0>        -0.4836
     21 O6          3.5534    2.1101   -0.0273 O.3       1 <0>        -0.4861
     22 H1          0.7972   -1.0372   -1.7094 H         1 <0>         0.1379
     23 H2          2.9076    0.2220   -1.7175 H         1 <0>         0.1421
     24 H3         -0.5155    1.1990    1.7108 H         1 <0>         0.1431
     25 H4         -5.7208   -2.5688    0.1018 H         1 <0>         0.1490
     26 H5         -5.5471   -4.9994   -0.0951 H         1 <0>         0.1454
     27 H6         -1.2834   -4.7216   -0.2925 H         1 <0>         0.1536
     28 H7         -3.3428   -6.6780   -1.2239 H         1 <0>         0.4038
     29 H8         -3.3122    1.6736    0.3036 H         1 <0>         0.4078
     30 H9          1.3507    3.5371    1.6164 H         1 <0>         0.3905
     31 H10         3.5286    2.9137   -0.5648 H         1 <0>         0.3925
@<TRIPOS>BOND
     1    1    6 ar
     2    1    2 ar
     3    1   22 1
     4    2    3 ar
     5    2   23 1
     6    3    4 ar
     7    3   21 1
     8    4    5 ar
     9    4   20 1
    10    5    6 ar
    11    5   24 1
    12    6    7 1
    13    7   17 1
    14    7    8 2
    15    8    9 1
    16    8   19 1
    17    9   10 2
    18    9   11 1
    19   11   16 ar
    20   11   12 ar
    21   12   13 ar
    22   12   25 1
    23   13   14 ar
    24   13   26 1
    25   14   15 ar
    26   14   18 1
    27   15   16 ar
    28   15   27 1
    29   16   17 1
    30   18   28 1
    31   19   29 1
    32   20   30 1
    33   21   31 1
@<TRIPOS>MOLECULE
ZINC00001083
   37    38     0     0     0
SMALL
USER_CHARGES

@<TRIPOS>ATOM
      1 C1         -0.0167    1.3781    0.0096 C.ar      1 <0>        -0.1191
      2 C2          1.1709    2.0855    0.0021 C.ar      1 <0>        -0.1182
      3 C3          2.3773    1.4107   -0.0130 C.ar      1 <0>        -0.1130
      4 C4          2.3960    0.0285   -0.0201 C.ar      1 <0>        -0.0878
      5 C5          1.2084   -0.6789   -0.0117 C.ar      1 <0>        -0.1128
      6 C6          0.0021   -0.0041    0.0020 C.ar      1 <0>        -0.1181
      7 C7          3.7112   -0.7071   -0.0376 C.3       1 <0>        -0.0782
      8 C8          4.1714   -0.9633    1.3989 C.3       1 <0>         0.0722
      9 O1          5.4184   -1.6609    1.3824 O.3       1 <0>        -0.3504
     10 C9          5.9656   -1.9659    2.5774 C.2       1 <0>         0.5021
     11 O2          5.3981   -1.6476    3.6053 O.2       1 <0>        -0.5122
     12 C10         7.2020   -2.6574    2.6352 C.2       1 <0>        -0.2064
     13 C11         7.7498   -2.9628    3.8318 C.2       1 <0>         0.0119
     14 C12         9.0313   -3.6796    3.8917 C.ar      1 <0>        -0.0798
     15 C13         9.6889   -4.0418    2.7103 C.ar      1 <0>        -0.0850
     16 C14        10.8899   -4.7136    2.7693 C.ar      1 <0>        -0.1334
     17 C15        11.4512   -5.0331    3.9987 C.ar      1 <0>         0.1008
     18 C16        10.8023   -4.6758    5.1801 C.ar      1 <0>         0.0776
     19 C17         9.6008   -3.9971    5.1304 C.ar      1 <0>        -0.0990
     20 O3         11.3558   -4.9908    6.3818 O.3       1 <0>        -0.4852
     21 O4         12.6354   -5.6961    4.0505 O.3       1 <0>        -0.4863
     22 H1         -0.9591    1.9053    0.0259 H         1 <0>         0.1231
     23 H2          1.1563    3.1654    0.0076 H         1 <0>         0.1239
     24 H3          3.3051    1.9634   -0.0196 H         1 <0>         0.1233
     25 H4          1.2231   -1.7588   -0.0176 H         1 <0>         0.1234
     26 H5         -0.9258   -0.5567    0.0082 H         1 <0>         0.1240
     27 H6          3.5884   -1.6586   -0.5549 H         1 <0>         0.0854
     28 H7          4.4573   -0.1052   -0.5563 H         1 <0>         0.0853
     29 H8          4.2941   -0.0118    1.9163 H         1 <0>         0.0704
     30 H9          3.4252   -1.5652    1.9176 H         1 <0>         0.0705
     31 H10         7.7058   -2.9400    1.7227 H         1 <0>         0.1435
     32 H11         7.2460   -2.6802    4.7443 H         1 <0>         0.1427
     33 H12         9.2545   -3.7949    1.7528 H         1 <0>         0.1397
     34 H13        11.3962   -4.9929    1.8572 H         1 <0>         0.1407
     35 H14         9.0996   -3.7159    6.0448 H         1 <0>         0.1420
     36 H15        11.9470   -4.3109    6.7328 H         1 <0>         0.3903
     37 H16        13.4098   -5.1172    4.0689 H         1 <0>         0.3924
@<TRIPOS>BOND
     1    1    6 ar
     2    1    2 ar
     3    1   22 1
     4    2    3 ar
     5    2   23 1
     6    3    4 ar
     7    3   24 1
     8    4    5 ar
     9    4    7 1
    10    5    6 ar
    11    5   25 1
    12    6   26 1
    13    7    8 1
    14    7   27 1
    15    7   28 1
    16    8    9 1
    17    8   29 1
    18    8   30 1
    19    9   10 1
    20   10   11 2
    21   10   12 1
    22   12   13 2
    23   12   31 1
    24   13   14 1
    25   13   32 1
    26   14   19 ar
    27   14   15 ar
    28   15   16 ar
    29   15   33 1
    30   16   17 ar
    31   16   34 1
    32   17   18 ar
    33   17   21 1
    34   18   19 ar
    35   18   20 1
    36   19   35 1
    37   20   36 1
    38   21   37 1
