@<TRIPOS>MOLECULE
ZINC18038301
   15    15     0     0     0
SMALL
USER_CHARGES
2,6-diamino-5-nitroso-pyrimidin-4-ol
@<TRIPOS>ATOM
      1 C1          1.2736    2.0272    0.0008 C.ar      1 <0>        -0.3548
      2 C2          2.4886    1.1941   -0.0153 C.ar      1 <0>         0.5617
      3 N1          2.3384   -0.1234   -0.0209 N.ar      1 <0>        -0.6990
      4 C3          1.1392   -0.6861   -0.0125 C.ar      1 <0>         0.6527
      5 N2          0.0021   -0.0041    0.0020 N.ar      1 <0>        -0.6912
      6 C4         -0.0159    1.3191    0.0093 C.ar      1 <0>         0.5026
      7 O1         -1.1827    1.9988    0.0186 O.3       1 <0>        -0.6078
      8 N3          1.0694   -2.0584   -0.0187 N.pl3     1 <0>        -0.8447
      9 N4          3.7368    1.7637   -0.0241 N.pl3     1 <0>        -0.8359
     10 N5          1.3390    3.3490    0.0068 N.2       1 <0>        -0.2939
     11 O2          0.3156    4.0094    0.0197 O.2       1 <0>        -0.0932
     12 H1          0.0901   -2.5593   -0.0120 H         1 <0>         0.4286
     13 H2          1.9928   -2.6560   -0.0303 H         1 <0>         0.4204
     14 H3          4.6326    1.1254   -0.0361 H         1 <0>         0.4168
     15 H4          3.8417    2.8587   -0.0192 H         1 <0>         0.4377
@<TRIPOS>BOND
     1    1    6 ar
     2    1    2 ar
     3    1   10 1
     4    2    3 ar
     5    2    9 1
     6    3    4 ar
     7    4    5 ar
     8    4    8 1
     9    5    6 ar
    10    6    7 1
    11    8   12 1
    12    8   13 1
    13    9   14 1
    14    9   15 1
    15   10   11 2
@<TRIPOS>MOLECULE
ZINC00000920
   16    16     0     0     0
SMALL
USER_CHARGES

@<TRIPOS>ATOM
      1 C1         -0.0169    1.3955    0.0097 C.ar      1 <0>        -0.0398
      2 C2          1.1575    2.0927    0.0022 C.ar      1 <0>        -0.2149
      3 C3          2.3730    1.4128   -0.0130 C.ar      1 <0>         0.2000
      4 C4          2.3959    0.0201   -0.0212 C.ar      1 <0>        -0.2150
      5 C5          1.2255   -0.6839   -0.0142 C.ar      1 <0>        -0.0398
      6 C6          0.0021   -0.0041    0.0020 C.ar      1 <0>        -0.1897
      7 C7         -1.2609   -0.7588    0.0105 C.2       1 <0>         0.5226
      8 O1         -2.3295   -0.1631    0.0243 O.co2     1 <0>        -0.6957
      9 O2         -1.2426   -1.9822    0.0038 O.co2     1 <0>        -0.6958
     10 N1          3.5654    2.1253   -0.0206 N.pl3     1 <0>        -0.8832
     11 H1         -0.9590    1.9234    0.0261 H         1 <0>         0.1241
     12 H2          1.1437    3.1726    0.0078 H         1 <0>         0.1099
     13 H3          3.3403   -0.5037   -0.0334 H         1 <0>         0.1099
     14 H4          1.2441   -1.7637   -0.0213 H         1 <0>         0.1241
     15 H5          3.5509    3.0952   -0.0152 H         1 <0>         0.3916
     16 H6          4.4126    1.6530   -0.0312 H         1 <0>         0.3917
@<TRIPOS>BOND
     1    1    6 ar
     2    1    2 ar
     3    1   11 1
     4    2    3 ar
     5    2   12 1
     6    3    4 ar
     7    3   10 1
     8    4    5 ar
     9    4   13 1
    10    5    6 ar
    11    5   14 1
    12    6    7 1
    13    7    8 2
    14    7    9 1
    15   10   15 1
    16   10   16 1
@<TRIPOS>MOLECULE
ZINC18207349
   24    25     0     0     0
SMALL
USER_CHARGES
2-amino-8-methyl-4-oxo-3,7-dihydropteridine-6-carboxylic acid
@<TRIPOS>ATOM
      1 C1         -4.9171    1.2384    0.6563 C.3       1 <0>         0.0402
      2 N1         -3.6007    1.8759    0.7931 N.pl3     1 <0>        -0.4680
      3 C2         -2.5837    1.1533    0.0206 C.3       1 <0>         0.0695
      4 C3         -1.2905    1.9260    0.0186 C.2       1 <0>         0.0899
      5 N2         -1.3064    3.2338    0.0312 N.2       1 <0>        -0.3643
      6 C4         -2.4760    3.8848    0.0819 C.2       1 <0>        -0.1744
      7 C5         -3.6562    3.1996    0.4372 C.2       1 <0>         0.3743
      8 N3         -4.8186    3.8506    0.4243 N.2       1 <0>        -0.6023
      9 C6         -4.8835    5.1293    0.1078 C.2       1 <0>         0.6528
     10 N4         -3.7768    5.8529   -0.2126 N.am      1 <0>        -0.6558
     11 H1         -3.8617    6.7949   -0.4278 H         1 <0>         0.4107
     12 C7         -2.5599    5.2660   -0.2322 C.2       1 <0>         0.5683
     13 O1         -1.5613    5.9055   -0.5124 O.2       1 <0>        -0.5041
     14 N5         -6.1019    5.7473    0.1010 N.pl3     1 <0>        -0.8193
     15 C8         -0.0144    1.2122    0.0087 C.2       1 <0>         0.5056
     16 O2          0.0021   -0.0041    0.0020 O.co2     1 <0>        -0.6339
     17 H2         -4.8638    0.2129    1.0218 H         1 <0>         0.0785
     18 H3         -5.6521    1.7940    1.2387 H         1 <0>         0.0881
     19 H4         -5.2120    1.2353   -0.3930 H         1 <0>         0.0439
     20 H5         -2.9308    1.0268   -1.0049 H         1 <0>         0.0588
     21 H6         -2.4185    0.1732    0.4680 H         1 <0>         0.1230
     22 H7         -6.1677    6.6871   -0.1298 H         1 <0>         0.4142
     23 H8         -6.9011    5.2462    0.3269 H         1 <0>         0.4273
     24 O3          1.1449    1.9028    0.0013 O.co2     1 <0>        -0.7229
@<TRIPOS>BOND
     1    1    2 1
     2    1   17 1
     3    1   18 1
     4    1   19 1
     5    2    7 1
     6    2    3 1
     7    3    4 1
     8    3   20 1
     9    3   21 1
    10    4    5 2
    11    4   15 1
    12    5    6 1
    13    6   12 1
    14    6    7 2
    15    7    8 1
    16    8    9 2
    17    9   10 1
    18    9   14 1
    19   10   11 1
    20   10   12 am
    21   12   13 2
    22   14   22 1
    23   14   23 1
    24   15   16 2
    25   15   24 1
