@<TRIPOS>MOLECULE
ZINC00806083
   49    52     0     0     0
SMALL
USER_CHARGES

@<TRIPOS>ATOM
      1 C1         -0.0167    1.3796    0.0096 C.ar      1 <0>         0.0260
      2 C2          1.1676    2.0941    0.0022 C.ar      1 <0>        -0.1338
      3 C3          2.3782    1.4295   -0.0135 C.ar      1 <0>         0.0697
      4 C4          2.4037    0.0322   -0.0212 C.ar      1 <0>        -0.1510
      5 C5          1.2036   -0.6813   -0.0131 C.ar      1 <0>         0.0264
      6 C6          0.0021   -0.0041    0.0020 C.ar      1 <0>        -0.6842
      7 S1         -1.5132   -0.9033    0.0117 S.o2      1 <0>         2.6885
      8 O1         -1.2217   -2.1845    0.5529 O.2       1 <0>        -0.9451
      9 O2         -2.4926   -0.0426    0.5765 O.2       1 <0>        -0.9430
     10 N1         -1.9493   -1.1447   -1.5675 N.pl3     1 <0>        -0.9928
     11 C7         -2.7867   -0.1636   -2.2712 C.3       1 <0>         0.1170
     12 C8         -2.0820    0.2458   -3.5683 C.3       1 <0>        -0.1371
     13 C9         -1.7594   -1.0069   -4.3862 C.3       1 <0>        -0.1188
     14 C10        -0.8161   -1.9101   -3.5885 C.3       1 <0>        -0.1380
     15 C11        -1.5014   -2.3410   -2.2934 C.3       1 <0>         0.1166
     16 C12         3.6941   -0.6864   -0.0384 C.2       1 <0>         0.5562
     17 O3          4.7374   -0.0623   -0.0458 O.2       1 <0>        -0.4676
     18 N2          3.7150   -2.0340   -0.0459 N.am      1 <0>        -0.6160
     19 C13         4.9266   -2.7087   -0.0620 C.2       1 <0>         0.0488
     20 C14         5.1387   -4.0743   -0.0771 C.2       1 <0>        -0.1214
     21 C15         6.5248   -4.5372   -0.0924 C.2       1 <0>        -0.0839
     22 C16         7.4345   -3.5453   -0.0883 C.2       1 <0>        -0.2473
     23 S2          6.4709   -2.0549   -0.0750 S.3       1 <0>         0.3539
     24 C17         8.8424   -4.0759   -0.1002 C.3       1 <0>        -0.0313
     25 C18         8.7054   -5.5561    0.3203 C.3       1 <0>        -0.1164
     26 C19         7.2608   -5.8751   -0.1152 C.3       1 <0>        -0.0618
     27 C20         4.0446   -4.9982   -0.0773 C.1       1 <0>         0.2638
     28 N3          3.1767   -5.7311   -0.0774 N.1       1 <0>        -0.4197
     29 Cl1         3.8640    2.3273   -0.0240 Cl        1 <0>        -0.0032
     30 H1         -0.9606    1.9041    0.0260 H         1 <0>         0.1592
     31 H2          1.1457    3.1738    0.0082 H         1 <0>         0.1583
     32 H3          1.2161   -1.7612   -0.0194 H         1 <0>         0.1471
     33 H4         -3.7533   -0.6095   -2.5055 H         1 <0>         0.0809
     34 H5         -2.9298    0.7138   -1.6405 H         1 <0>         0.0920
     35 H6         -2.7351    0.8995   -4.1464 H         1 <0>         0.0792
     36 H7         -1.1580    0.7725   -3.3298 H         1 <0>         0.0665
     37 H8         -2.6814   -1.5462   -4.6033 H         1 <0>         0.0676
     38 H9         -1.2800   -0.7167   -5.3211 H         1 <0>         0.0669
     39 H10        -0.5683   -2.7909   -4.1809 H         1 <0>         0.0791
     40 H11         0.0960   -1.3632   -3.3497 H         1 <0>         0.0651
     41 H12        -0.7968   -2.8997   -1.6773 H         1 <0>         0.0895
     42 H13        -2.3609   -2.9683   -2.5295 H         1 <0>         0.0815
     43 H14         2.8826   -2.5320   -0.0399 H         1 <0>         0.4195
     44 H15         9.2675   -4.0030   -1.1012 H         1 <0>         0.0871
     45 H16         9.4592   -3.5329    0.6160 H         1 <0>         0.0819
     46 H17         9.4208   -6.1811   -0.2141 H         1 <0>         0.0859
     47 H18         8.8213   -5.6676    1.3984 H         1 <0>         0.0785
     48 H19         6.8003   -6.5711    0.5859 H         1 <0>         0.0752
     49 H20         7.2537   -6.2925   -1.1221 H         1 <0>         0.0844
@<TRIPOS>BOND
     1    1    6 ar
     2    1    2 ar
     3    1   30 1
     4    2    3 ar
     5    2   31 1
     6    3    4 ar
     7    3   29 1
     8    4    5 ar
     9    4   16 1
    10    5    6 ar
    11    5   32 1
    12    6    7 1
    13    7    8 2
    14    7    9 2
    15    7   10 1
    16   10   15 1
    17   10   11 1
    18   11   12 1
    19   11   33 1
    20   11   34 1
    21   12   13 1
    22   12   35 1
    23   12   36 1
    24   13   14 1
    25   13   37 1
    26   13   38 1
    27   14   15 1
    28   14   39 1
    29   14   40 1
    30   15   41 1
    31   15   42 1
    32   16   17 2
    33   16   18 am
    34   18   19 1
    35   18   43 1
    36   19   23 1
    37   19   20 2
    38   20   21 1
    39   20   27 1
    40   21   26 1
    41   21   22 2
    42   22   23 1
    43   22   24 1
    44   24   25 1
    45   24   44 1
    46   24   45 1
    47   25   26 1
    48   25   46 1
    49   25   47 1
    50   26   48 1
    51   26   49 1
    52   27   28 3
@<TRIPOS>MOLECULE
ZINC00866136
   50    53     0     0     0
SMALL
USER_CHARGES

@<TRIPOS>ATOM
      1 C1         -0.0167    1.3796    0.0096 C.ar      1 <0>         0.0249
      2 C2          1.1676    2.0941    0.0022 C.ar      1 <0>        -0.1330
      3 C3          2.3782    1.4295   -0.0135 C.ar      1 <0>         0.0701
      4 C4          2.4037    0.0322   -0.0212 C.ar      1 <0>        -0.1500
      5 C5          1.2036   -0.6813   -0.0131 C.ar      1 <0>         0.0254
      6 C6          0.0021   -0.0041    0.0020 C.ar      1 <0>        -0.6867
      7 S1         -1.5132   -0.9033    0.0117 S.o2      1 <0>         2.6898
      8 O1         -1.2217   -2.1845    0.5529 O.2       1 <0>        -0.9417
      9 O2         -2.4926   -0.0426    0.5765 O.2       1 <0>        -0.9396
     10 N1         -1.9493   -1.1447   -1.5675 N.pl3     1 <0>        -0.9980
     11 C7         -2.7875   -0.1672   -2.2797 C.3       1 <0>         0.0834
     12 C8         -2.1083    0.1730   -3.6112 C.3       1 <0>         0.0456
     13 O3         -1.8112   -1.0378   -4.3109 O.3       1 <0>        -0.3718
     14 C9         -0.8927   -1.8966   -3.6306 C.3       1 <0>         0.0461
     15 C10        -1.5051   -2.3400   -2.3018 C.3       1 <0>         0.0828
     16 C11         3.6941   -0.6864   -0.0384 C.2       1 <0>         0.5548
     17 O4          4.7374   -0.0623   -0.0458 O.2       1 <0>        -0.4662
     18 N2          3.7150   -2.0340   -0.0459 N.am      1 <0>        -0.6169
     19 C12         4.9266   -2.7087   -0.0620 C.2       1 <0>         0.0514
     20 C13         5.1389   -4.0778   -0.0772 C.2       1 <0>        -0.1329
     21 C14         6.5165   -4.5363   -0.0922 C.2       1 <0>        -0.0558
     22 C15         7.4302   -3.5409   -0.0890 C.2       1 <0>        -0.2207
     23 S2          6.4728   -2.0537   -0.0750 S.3       1 <0>         0.3180
     24 C16         8.9204   -3.6878   -0.1001 C.3       1 <0>        -0.0356
     25 C17         9.2643   -5.1395    0.2648 C.3       1 <0>        -0.1159
     26 C18         8.3957   -6.0807   -0.5745 C.3       1 <0>        -0.1197
     27 C19         6.9395   -5.9978   -0.1111 C.3       1 <0>        -0.0616
     28 C20         4.0452   -5.0021   -0.0774 C.1       1 <0>         0.2646
     29 N3          3.1776   -5.7354   -0.0777 N.1       1 <0>        -0.4196
     30 Cl1         3.8640    2.3273   -0.0240 Cl        1 <0>        -0.0015
     31 H1         -0.9606    1.9041    0.0260 H         1 <0>         0.1597
     32 H2          1.1457    3.1738    0.0082 H         1 <0>         0.1592
     33 H3          1.2161   -1.7612   -0.0194 H         1 <0>         0.1474
     34 H4         -3.7716   -0.5961   -2.4687 H         1 <0>         0.0904
     35 H5         -2.8896    0.7362   -1.6783 H         1 <0>         0.1014
     36 H6         -2.7767    0.7874   -4.2144 H         1 <0>         0.1112
     37 H7         -1.1844    0.7188   -3.4196 H         1 <0>         0.0564
     38 H8         -0.6866   -2.7711   -4.2478 H         1 <0>         0.1110
     39 H9          0.0355   -1.3583   -3.4391 H         1 <0>         0.0549
     40 H10        -0.7583   -2.8748   -1.7151 H         1 <0>         0.0989
     41 H11        -2.3579   -2.9914   -2.4931 H         1 <0>         0.0911
     42 H12         2.8826   -2.5320   -0.0399 H         1 <0>         0.4187
     43 H13         9.3049   -3.4577   -1.0937 H         1 <0>         0.0850
     44 H14         9.3618   -3.0107    0.6312 H         1 <0>         0.0836
     45 H15        10.3169   -5.3292    0.0544 H         1 <0>         0.0753
     46 H16         9.0661   -5.3066    1.3235 H         1 <0>         0.0694
     47 H17         8.4587   -5.7923   -1.6237 H         1 <0>         0.0684
     48 H18         8.7545   -7.1035   -0.4594 H         1 <0>         0.0717
     49 H19         6.8503   -6.4173    0.8910 H         1 <0>         0.0811
     50 H20         6.3041   -6.5536   -0.8007 H         1 <0>         0.0754
@<TRIPOS>BOND
     1    1    6 ar
     2    1    2 ar
     3    1   31 1
     4    2    3 ar
     5    2   32 1
     6    3    4 ar
     7    3   30 1
     8    4    5 ar
     9    4   16 1
    10    5    6 ar
    11    5   33 1
    12    6    7 1
    13    7    8 2
    14    7    9 2
    15    7   10 1
    16   10   15 1
    17   10   11 1
    18   11   12 1
    19   11   34 1
    20   11   35 1
    21   12   13 1
    22   12   36 1
    23   12   37 1
    24   13   14 1
    25   14   15 1
    26   14   38 1
    27   14   39 1
    28   15   40 1
    29   15   41 1
    30   16   17 2
    31   16   18 am
    32   18   19 1
    33   18   42 1
    34   19   23 1
    35   19   20 2
    36   20   21 1
    37   20   28 1
    38   21   27 1
    39   21   22 2
    40   22   23 1
    41   22   24 1
    42   24   25 1
    43   24   43 1
    44   24   44 1
    45   25   26 1
    46   25   45 1
    47   25   46 1
    48   26   27 1
    49   26   47 1
    50   26   48 1
    51   27   49 1
    52   27   50 1
    53   28   29 3
@<TRIPOS>MOLECULE
ZINC01433755
   47    50     0     0     0
SMALL
USER_CHARGES

@<TRIPOS>ATOM
      1 C1         -0.0167    1.3796    0.0096 C.ar      1 <0>         0.0252
      2 C2          1.1676    2.0941    0.0022 C.ar      1 <0>        -0.1330
      3 C3          2.3782    1.4295   -0.0135 C.ar      1 <0>         0.0703
      4 C4          2.4037    0.0322   -0.0212 C.ar      1 <0>        -0.1501
      5 C5          1.2036   -0.6813   -0.0131 C.ar      1 <0>         0.0256
      6 C6          0.0021   -0.0041    0.0020 C.ar      1 <0>        -0.6867
      7 S1         -1.5132   -0.9033    0.0117 S.o2      1 <0>         2.6898
      8 O1         -1.2217   -2.1845    0.5529 O.2       1 <0>        -0.9417
      9 O2         -2.4926   -0.0426    0.5765 O.2       1 <0>        -0.9395
     10 N1         -1.9493   -1.1447   -1.5675 N.pl3     1 <0>        -0.9979
     11 C7         -2.7875   -0.1672   -2.2797 C.3       1 <0>         0.0834
     12 C8         -2.1083    0.1730   -3.6112 C.3       1 <0>         0.0456
     13 O3         -1.8112   -1.0378   -4.3109 O.3       1 <0>        -0.3718
     14 C9         -0.8927   -1.8966   -3.6306 C.3       1 <0>         0.0461
     15 C10        -1.5051   -2.3400   -2.3018 C.3       1 <0>         0.0828
     16 C11         3.6941   -0.6864   -0.0384 C.2       1 <0>         0.5558
     17 O4          4.7374   -0.0623   -0.0458 O.2       1 <0>        -0.4668
     18 N2          3.7150   -2.0340   -0.0459 N.am      1 <0>        -0.6159
     19 C12         4.9266   -2.7087   -0.0620 C.2       1 <0>         0.0477
     20 C13         5.1387   -4.0743   -0.0771 C.2       1 <0>        -0.1206
     21 C14         6.5248   -4.5372   -0.0924 C.2       1 <0>        -0.0840
     22 C15         7.4345   -3.5453   -0.0883 C.2       1 <0>        -0.2467
     23 S2          6.4709   -2.0549   -0.0750 S.3       1 <0>         0.3543
     24 C16         8.8424   -4.0759   -0.1002 C.3       1 <0>        -0.0315
     25 C17         8.7054   -5.5561    0.3203 C.3       1 <0>        -0.1164
     26 C18         7.2608   -5.8751   -0.1152 C.3       1 <0>        -0.0618
     27 C19         4.0446   -4.9982   -0.0773 C.1       1 <0>         0.2637
     28 N3          3.1767   -5.7311   -0.0774 N.1       1 <0>        -0.4195
     29 Cl1         3.8640    2.3273   -0.0240 Cl        1 <0>        -0.0013
     30 H1         -0.9606    1.9041    0.0260 H         1 <0>         0.1598
     31 H2          1.1457    3.1738    0.0082 H         1 <0>         0.1593
     32 H3          1.2161   -1.7612   -0.0194 H         1 <0>         0.1476
     33 H4         -3.7716   -0.5961   -2.4687 H         1 <0>         0.0904
     34 H5         -2.8896    0.7362   -1.6783 H         1 <0>         0.1014
     35 H6         -2.7767    0.7874   -4.2144 H         1 <0>         0.1112
     36 H7         -1.1844    0.7188   -3.4196 H         1 <0>         0.0564
     37 H8         -0.6866   -2.7711   -4.2478 H         1 <0>         0.1110
     38 H9          0.0355   -1.3583   -3.4391 H         1 <0>         0.0550
     39 H10        -0.7583   -2.8748   -1.7151 H         1 <0>         0.0989
     40 H11        -2.3579   -2.9914   -2.4931 H         1 <0>         0.0911
     41 H12         2.8826   -2.5320   -0.0399 H         1 <0>         0.4193
     42 H13         9.2675   -4.0030   -1.1012 H         1 <0>         0.0873
     43 H14         9.4592   -3.5329    0.6160 H         1 <0>         0.0820
     44 H15         9.4208   -6.1811   -0.2141 H         1 <0>         0.0860
     45 H16         8.8213   -5.6676    1.3984 H         1 <0>         0.0786
     46 H17         6.8003   -6.5711    0.5859 H         1 <0>         0.0753
     47 H18         7.2537   -6.2925   -1.1221 H         1 <0>         0.0845
@<TRIPOS>BOND
     1    1    6 ar
     2    1    2 ar
     3    1   30 1
     4    2    3 ar
     5    2   31 1
     6    3    4 ar
     7    3   29 1
     8    4    5 ar
     9    4   16 1
    10    5    6 ar
    11    5   32 1
    12    6    7 1
    13    7    8 2
    14    7    9 2
    15    7   10 1
    16   10   15 1
    17   10   11 1
    18   11   12 1
    19   11   33 1
    20   11   34 1
    21   12   13 1
    22   12   35 1
    23   12   36 1
    24   13   14 1
    25   14   15 1
    26   14   37 1
    27   14   38 1
    28   15   39 1
    29   15   40 1
    30   16   17 2
    31   16   18 am
    32   18   19 1
    33   18   41 1
    34   19   23 1
    35   19   20 2
    36   20   21 1
    37   20   27 1
    38   21   26 1
    39   21   22 2
    40   22   23 1
    41   22   24 1
    42   24   25 1
    43   24   42 1
    44   24   43 1
    45   25   26 1
    46   25   44 1
    47   25   45 1
    48   26   46 1
    49   26   47 1
    50   27   28 3
@<TRIPOS>MOLECULE
ZINC00862376
   50    53     0     0     0
SMALL
USER_CHARGES

@<TRIPOS>ATOM
      1 C1         -0.1094    1.4321    0.0488 C.ar      1 <0>         0.0364
      2 C2          1.0616    2.1933    0.0212 C.ar      1 <0>        -0.1459
      3 C3          2.3007    1.5546   -0.0794 C.ar      1 <0>         0.0800
      4 C4          2.3594    0.1769   -0.1507 C.ar      1 <0>        -0.1244
      5 C5          1.1946   -0.5704   -0.1232 C.ar      1 <0>         0.0913
      6 C6         -0.0367    0.0576   -0.0231 C.ar      1 <0>        -0.6836
      7 S1         -1.5130   -0.9035    0.0122 S.o2      1 <0>         2.6852
      8 O1         -1.2901   -1.9563    0.9402 O.2       1 <0>        -0.9258
      9 O2         -2.5911    0.0128    0.1443 O.2       1 <0>        -0.9380
     10 N1         -1.6727   -1.6107   -1.4766 N.pl3     1 <0>        -0.9926
     11 C7         -2.2514   -0.8701   -2.6089 C.3       1 <0>         0.0846
     12 C8         -1.3037   -1.0003   -3.8067 C.3       1 <0>         0.0460
     13 O3         -1.0172   -2.3826   -4.0322 O.3       1 <0>        -0.3701
     14 C9         -0.3412   -3.0246   -2.9484 C.3       1 <0>         0.0443
     15 C10        -1.2344   -2.9962   -1.7080 C.3       1 <0>         0.0783
     16 Cl1         1.2765   -2.3021   -0.2144 Cl        1 <0>        -0.0104
     17 Cl2         3.7620    2.4911   -0.1151 Cl        1 <0>         0.0131
     18 C11         0.9905    3.6661    0.0974 C.2       1 <0>         0.5559
     19 O4          2.0114    4.3261    0.0731 O.2       1 <0>        -0.4643
     20 N2         -0.2059    4.2790    0.1938 N.am      1 <0>        -0.6157
     21 C12        -0.2727    5.6624    0.2654 C.2       1 <0>         0.0492
     22 C13        -1.4032    6.4562    0.3728 C.2       1 <0>        -0.1298
     23 C14        -1.2031    7.8931    0.4311 C.2       1 <0>        -0.0559
     24 C15         0.0921    8.2734    0.3709 C.2       1 <0>        -0.2195
     25 S2          0.9986    6.7595    0.2493 S.3       1 <0>         0.3182
     26 C16         0.6209    9.6740    0.4058 C.3       1 <0>        -0.0358
     27 C17        -0.5462   10.6365    0.1408 C.3       1 <0>        -0.1158
     28 C18        -1.7271   10.2412    1.0321 C.3       1 <0>        -0.1199
     29 C19        -2.3228    8.9164    0.5502 C.3       1 <0>        -0.0617
     30 C20        -2.7146    5.8832    0.4236 C.1       1 <0>         0.2628
     31 N3         -3.7549    5.4287    0.4640 N.1       1 <0>        -0.4170
     32 H1         -1.0696    1.9195    0.1309 H         1 <0>         0.1613
     33 H2          3.3160   -0.3185   -0.2285 H         1 <0>         0.1688
     34 H3         -3.2245   -1.2901   -2.8633 H         1 <0>         0.0933
     35 H4         -2.3630    0.1807   -2.3416 H         1 <0>         0.0963
     36 H5         -1.7768   -0.5773   -4.6929 H         1 <0>         0.1116
     37 H6         -0.3770   -0.4658   -3.5976 H         1 <0>         0.0552
     38 H7         -0.1218   -4.0579   -3.2171 H         1 <0>         0.1111
     39 H8          0.5890   -2.4975   -2.7362 H         1 <0>         0.0570
     40 H9         -0.6729   -3.3527   -0.8445 H         1 <0>         0.1036
     41 H10        -2.1033   -3.6339   -1.8702 H         1 <0>         0.0915
     42 H11        -1.0204    3.7525    0.2132 H         1 <0>         0.4198
     43 H12         1.0516    9.8798    1.3857 H         1 <0>         0.0852
     44 H13         1.3821    9.7986   -0.3643 H         1 <0>         0.0838
     45 H14        -0.2386   11.6560    0.3734 H         1 <0>         0.0754
     46 H15        -0.8417   10.5724   -0.9064 H         1 <0>         0.0694
     47 H16        -1.3833   10.1308    2.0605 H         1 <0>         0.0686
     48 H17        -2.4900   11.0184    0.9881 H         1 <0>         0.0719
     49 H18        -2.7928    9.0591   -0.4229 H         1 <0>         0.0813
     50 H19        -3.0636    8.5659    1.2688 H         1 <0>         0.0756
@<TRIPOS>BOND
     1    1    6 ar
     2    1    2 ar
     3    1   32 1
     4    2    3 ar
     5    2   18 1
     6    3    4 ar
     7    3   17 1
     8    4    5 ar
     9    4   33 1
    10    5    6 ar
    11    5   16 1
    12    6    7 1
    13    7    8 2
    14    7    9 2
    15    7   10 1
    16   10   15 1
    17   10   11 1
    18   11   12 1
    19   11   34 1
    20   11   35 1
    21   12   13 1
    22   12   36 1
    23   12   37 1
    24   13   14 1
    25   14   15 1
    26   14   38 1
    27   14   39 1
    28   15   40 1
    29   15   41 1
    30   18   19 2
    31   18   20 am
    32   20   21 1
    33   20   42 1
    34   21   25 1
    35   21   22 2
    36   22   23 1
    37   22   30 1
    38   23   29 1
    39   23   24 2
    40   24   25 1
    41   24   26 1
    42   26   27 1
    43   26   43 1
    44   26   44 1
    45   27   28 1
    46   27   45 1
    47   27   46 1
    48   28   29 1
    49   28   47 1
    50   28   48 1
    51   29   49 1
    52   29   50 1
    53   30   31 3
@<TRIPOS>MOLECULE
ZINC00854136
   48    50     0     0     0
SMALL
USER_CHARGES

@<TRIPOS>ATOM
      1 C1         -0.0187    1.5258    0.0104 C.3       1 <0>        -0.1786
      2 C2          0.0021   -0.0041    0.0020 C.3       1 <0>         0.1060
      3 N1          0.7106   -0.4894    1.1889 N.pl3     1 <0>        -0.9930
      4 C3         -0.0062   -0.6460    2.4569 C.3       1 <0>         0.1180
      5 C4         -0.6935   -2.0126    2.4888 C.3       1 <0>        -0.1759
      6 S1          2.3218   -0.8609    1.0971 S.o2      1 <0>         2.6865
      7 O1          2.5856   -1.7855    2.1435 O.2       1 <0>        -0.9436
      8 O2          2.5937   -1.1554   -0.2662 O.2       1 <0>        -0.9439
      9 C5          3.2176    0.6063    1.4838 C.ar      1 <0>        -0.6840
     10 C6          3.5675    1.4874    0.4751 C.ar      1 <0>         0.0253
     11 C7          4.2704    2.6413    0.7688 C.ar      1 <0>        -0.1336
     12 C8          4.6284    2.9222    2.0732 C.ar      1 <0>         0.0701
     13 C9          4.2782    2.0367    3.0957 C.ar      1 <0>        -0.1509
     14 C10         3.5633    0.8764    2.7911 C.ar      1 <0>         0.0261
     15 C11         4.6571    2.3295    4.4931 C.2       1 <0>         0.5561
     16 O3          5.2752    3.3430    4.7558 O.2       1 <0>        -0.4676
     17 N2          4.3176    1.4732    5.4770 N.am      1 <0>        -0.6159
     18 C12         4.6733    1.7481    6.7889 C.2       1 <0>         0.0487
     19 C13         4.4177    0.9895    7.9155 C.2       1 <0>        -0.1213
     20 C14         4.9038    1.5036    9.1943 C.2       1 <0>        -0.0838
     21 C15         5.5518    2.6796    9.1021 C.2       1 <0>        -0.2473
     22 S2          5.5189    3.0739    7.3720 S.3       1 <0>         0.3540
     23 C16         6.0264    3.1648   10.4449 C.3       1 <0>        -0.0313
     24 C17         5.2145    2.3394   11.4677 C.3       1 <0>        -0.1162
     25 C18         4.8869    1.0685   10.6580 C.3       1 <0>        -0.0618
     26 C19         3.7051   -0.2498    7.8332 C.1       1 <0>         0.2637
     27 N3          3.1398   -1.2330    7.7679 N.1       1 <0>        -0.4195
     28 Cl1         5.5115    4.3709    2.4408 Cl        1 <0>        -0.0029
     29 H1          1.0039    1.9031    0.0027 H         1 <0>         0.0534
     30 H2         -0.5459    1.8868   -0.8726 H         1 <0>         0.0744
     31 H3         -0.5289    1.8773    0.9072 H         1 <0>         0.0628
     32 H4         -1.0205   -0.3814    0.0098 H         1 <0>         0.0901
     33 H5          0.5123   -0.3556   -0.8948 H         1 <0>         0.0963
     34 H6          0.6997   -0.5749    3.2845 H         1 <0>         0.0788
     35 H7         -0.7557    0.1399    2.5501 H         1 <0>         0.0845
     36 H8         -1.3993   -2.0837    1.6613 H         1 <0>         0.0622
     37 H9          0.0560   -2.7985    2.3957 H         1 <0>         0.0648
     38 H10        -1.2268   -2.1291    3.4323 H         1 <0>         0.0717
     39 H11         3.2904    1.2723   -0.5463 H         1 <0>         0.1595
     40 H12         4.5405    3.3242   -0.0231 H         1 <0>         0.1586
     41 H13         3.2852    0.1900    3.5772 H         1 <0>         0.1474
     42 H14         3.8244    0.6647    5.2674 H         1 <0>         0.4196
     43 H15         7.0929    2.9732   10.5630 H         1 <0>         0.0872
     44 H16         5.8153    4.2278   10.5612 H         1 <0>         0.0818
     45 H17         5.8185    2.0995   12.3427 H         1 <0>         0.0859
     46 H18         4.3034    2.8635   11.7563 H         1 <0>         0.0784
     47 H19         3.9002    0.6925   10.9286 H         1 <0>         0.0751
     48 H20         5.6438    0.3040   10.8332 H         1 <0>         0.0845
@<TRIPOS>BOND
     1    1    2 1
     2    1   29 1
     3    1   30 1
     4    1   31 1
     5    2    3 1
     6    2   32 1
     7    2   33 1
     8    3    4 1
     9    3    6 1
    10    4    5 1
    11    4   34 1
    12    4   35 1
    13    5   36 1
    14    5   37 1
    15    5   38 1
    16    6    7 2
    17    6    8 2
    18    6    9 1
    19    9   14 ar
    20    9   10 ar
    21   10   11 ar
    22   10   39 1
    23   11   12 ar
    24   11   40 1
    25   12   13 ar
    26   12   28 1
    27   13   14 ar
    28   13   15 1
    29   14   41 1
    30   15   16 2
    31   15   17 am
    32   17   18 1
    33   17   42 1
    34   18   22 1
    35   18   19 2
    36   19   20 1
    37   19   26 1
    38   20   25 1
    39   20   21 2
    40   21   22 1
    41   21   23 1
    42   23   24 1
    43   23   43 1
    44   23   44 1
    45   24   25 1
    46   24   45 1
    47   24   46 1
    48   25   47 1
    49   25   48 1
    50   26   27 3
@<TRIPOS>MOLECULE
ZINC00827259
   51    53     0     0     0
SMALL
USER_CHARGES

@<TRIPOS>ATOM
      1 C1         -0.0187    1.5258    0.0104 C.3       1 <0>        -0.1786
      2 C2          0.0021   -0.0041    0.0020 C.3       1 <0>         0.1060
      3 N1         -1.3723   -0.5112    0.0124 N.pl3     1 <0>        -0.9930
      4 C3         -2.1099   -0.6542   -1.2453 C.3       1 <0>         0.1180
      5 C4         -1.7727   -2.0031   -1.8836 C.3       1 <0>        -0.1759
      6 S1         -2.0922   -0.9227    1.4458 S.o2      1 <0>         2.6866
      7 O1         -3.1158   -1.8572    1.1326 O.2       1 <0>        -0.9437
      8 O2         -1.0428   -1.2191    2.3570 O.2       1 <0>        -0.9440
      9 C5         -2.8976    0.5202    2.0575 C.ar      1 <0>        -0.6840
     10 C6         -2.2126    1.3957    2.8823 C.ar      1 <0>         0.0250
     11 C7         -2.8362    2.5306    3.3672 C.ar      1 <0>        -0.1337
     12 C8         -4.1492    2.7979    3.0306 C.ar      1 <0>         0.0698
     13 C9         -4.8459    1.9179    2.1984 C.ar      1 <0>        -0.1509
     14 C10        -4.2067    0.7770    1.7086 C.ar      1 <0>         0.0260
     15 C11        -6.2500    2.1962    1.8337 C.2       1 <0>         0.5551
     16 O3         -6.8021    3.1929    2.2578 O.2       1 <0>        -0.4670
     17 N2         -6.9190    1.3453    1.0308 N.am      1 <0>        -0.6170
     18 C12        -8.2373    1.6066    0.6884 C.2       1 <0>         0.0523
     19 C13        -9.0753    0.8486   -0.1134 C.2       1 <0>        -0.1335
     20 C14       -10.4246    1.3438   -0.3195 C.2       1 <0>        -0.0556
     21 C15       -10.6888    2.5076    0.3142 C.2       1 <0>        -0.2214
     22 S2         -9.1864    2.9105    1.1563 S.3       1 <0>         0.3178
     23 C16       -11.9783    3.2685    0.2969 C.3       1 <0>        -0.0355
     24 C17       -12.8418    2.7276   -0.8523 C.3       1 <0>        -0.1156
     25 C18       -12.8560    1.1978   -0.7841 C.3       1 <0>        -0.1199
     26 C19       -11.4801    0.6466   -1.1650 C.3       1 <0>        -0.0615
     27 C20        -8.6291   -0.3723   -0.7142 C.1       1 <0>         0.2645
     28 N3         -8.2752   -1.3409   -1.1908 N.1       1 <0>        -0.4195
     29 Cl1        -4.9313    4.2227    3.6404 Cl        1 <0>        -0.0030
     30 H1          1.0039    1.9031    0.0027 H         1 <0>         0.0744
     31 H2         -0.5459    1.8868   -0.8726 H         1 <0>         0.0628
     32 H3         -0.5289    1.8773    0.9072 H         1 <0>         0.0534
     33 H4          0.5123   -0.3556   -0.8948 H         1 <0>         0.0901
     34 H5          0.5293   -0.3651    0.8851 H         1 <0>         0.0963
     35 H6         -3.1804   -0.6037   -1.0465 H         1 <0>         0.0788
     36 H7         -1.8283    0.1500   -1.9251 H         1 <0>         0.0844
     37 H8         -2.3215   -2.1096   -2.8194 H         1 <0>         0.0717
     38 H9         -0.7022   -2.0536   -2.0825 H         1 <0>         0.0622
     39 H10        -2.0544   -2.8073   -1.2038 H         1 <0>         0.0648
     40 H11        -1.1861    1.1913    3.1488 H         1 <0>         0.1594
     41 H12        -2.2960    3.2093    4.0106 H         1 <0>         0.1584
     42 H13        -4.7378    0.0951    1.0611 H         1 <0>         0.1473
     43 H14        -6.4785    0.5501    0.6924 H         1 <0>         0.4191
     44 H15       -12.4992    3.1304    1.2444 H         1 <0>         0.0849
     45 H16       -11.7776    4.3281    0.1384 H         1 <0>         0.0834
     46 H17       -13.8590    3.1068   -0.7543 H         1 <0>         0.0752
     47 H18       -12.4217    3.0466   -1.8061 H         1 <0>         0.0692
     48 H19       -13.1043    0.8829    0.2294 H         1 <0>         0.0685
     49 H20       -13.6049    0.8116   -1.4755 H         1 <0>         0.0716
     50 H21       -11.2886    0.8388   -2.2207 H         1 <0>         0.0809
     51 H22       -11.4508   -0.4263   -0.9751 H         1 <0>         0.0753
@<TRIPOS>BOND
     1    1    2 1
     2    1   30 1
     3    1   31 1
     4    1   32 1
     5    2    3 1
     6    2   33 1
     7    2   34 1
     8    3    4 1
     9    3    6 1
    10    4    5 1
    11    4   35 1
    12    4   36 1
    13    5   37 1
    14    5   38 1
    15    5   39 1
    16    6    7 2
    17    6    8 2
    18    6    9 1
    19    9   14 ar
    20    9   10 ar
    21   10   11 ar
    22   10   40 1
    23   11   12 ar
    24   11   41 1
    25   12   13 ar
    26   12   29 1
    27   13   14 ar
    28   13   15 1
    29   14   42 1
    30   15   16 2
    31   15   17 am
    32   17   18 1
    33   17   43 1
    34   18   22 1
    35   18   19 2
    36   19   20 1
    37   19   27 1
    38   20   26 1
    39   20   21 2
    40   21   22 1
    41   21   23 1
    42   23   24 1
    43   23   44 1
    44   23   45 1
    45   24   25 1
    46   24   46 1
    47   24   47 1
    48   25   26 1
    49   25   48 1
    50   25   49 1
    51   26   50 1
    52   26   51 1
    53   27   28 3
@<TRIPOS>MOLECULE
ZINC00827253
   47    50     0     0     0
SMALL
USER_CHARGES

@<TRIPOS>ATOM
      1 C1         -0.1094    1.4321    0.0488 C.ar      1 <0>         0.0366
      2 C2          1.0616    2.1933    0.0212 C.ar      1 <0>        -0.1459
      3 C3          2.3007    1.5546   -0.0794 C.ar      1 <0>         0.0802
      4 C4          2.3594    0.1769   -0.1507 C.ar      1 <0>        -0.1244
      5 C5          1.1946   -0.5704   -0.1232 C.ar      1 <0>         0.0915
      6 C6         -0.0367    0.0576   -0.0231 C.ar      1 <0>        -0.6836
      7 S1         -1.5130   -0.9035    0.0122 S.o2      1 <0>         2.6852
      8 O1         -1.2901   -1.9563    0.9402 O.2       1 <0>        -0.9257
      9 O2         -2.5911    0.0128    0.1443 O.2       1 <0>        -0.9379
     10 N1         -1.6727   -1.6107   -1.4766 N.pl3     1 <0>        -0.9926
     11 C7         -2.2514   -0.8701   -2.6089 C.3       1 <0>         0.0846
     12 C8         -1.3037   -1.0003   -3.8067 C.3       1 <0>         0.0460
     13 O3         -1.0172   -2.3826   -4.0322 O.3       1 <0>        -0.3701
     14 C9         -0.3412   -3.0246   -2.9484 C.3       1 <0>         0.0443
     15 C10        -1.2344   -2.9962   -1.7080 C.3       1 <0>         0.0783
     16 Cl1         1.2765   -2.3021   -0.2144 Cl        1 <0>        -0.0102
     17 Cl2         3.7620    2.4911   -0.1151 Cl        1 <0>         0.0133
     18 C11         0.9905    3.6661    0.0974 C.2       1 <0>         0.5569
     19 O4          2.0114    4.3261    0.0731 O.2       1 <0>        -0.4649
     20 N2         -0.2059    4.2790    0.1938 N.am      1 <0>        -0.6146
     21 C12        -0.2727    5.6624    0.2654 C.2       1 <0>         0.0456
     22 C13        -1.4001    6.4544    0.3725 C.2       1 <0>        -0.1175
     23 C14        -1.2002    7.9009    0.4314 C.2       1 <0>        -0.0841
     24 C15         0.0900    8.2792    0.3705 C.2       1 <0>        -0.2454
     25 S2          0.9968    6.7583    0.2493 S.3       1 <0>         0.3544
     26 C16         0.2390    9.7752    0.4307 C.3       1 <0>        -0.0316
     27 C17        -1.1696   10.3212    0.1075 C.3       1 <0>        -0.1163
     28 C18        -2.0706    9.1502    0.5493 C.3       1 <0>        -0.0620
     29 C19        -2.7113    5.8809    0.4241 C.1       1 <0>         0.2619
     30 N3         -3.7514    5.4259    0.4651 N.1       1 <0>        -0.4170
     31 H1         -1.0696    1.9195    0.1309 H         1 <0>         0.1614
     32 H2          3.3160   -0.3185   -0.2285 H         1 <0>         0.1689
     33 H3         -3.2245   -1.2901   -2.8633 H         1 <0>         0.0933
     34 H4         -2.3630    0.1807   -2.3416 H         1 <0>         0.0963
     35 H5         -1.7768   -0.5773   -4.6929 H         1 <0>         0.1116
     36 H6         -0.3770   -0.4658   -3.5976 H         1 <0>         0.0552
     37 H7         -0.1218   -4.0579   -3.2171 H         1 <0>         0.1111
     38 H8          0.5890   -2.4975   -2.7362 H         1 <0>         0.0570
     39 H9         -0.6729   -3.3527   -0.8445 H         1 <0>         0.1037
     40 H10        -2.1033   -3.6339   -1.8702 H         1 <0>         0.0915
     41 H11        -1.0204    3.7525    0.2132 H         1 <0>         0.4203
     42 H12         0.5474   10.0865    1.4288 H         1 <0>         0.0876
     43 H13         0.9586   10.1158   -0.3138 H         1 <0>         0.0822
     44 H14        -1.3830   11.2183    0.6887 H         1 <0>         0.0861
     45 H15        -1.2773   10.5149   -0.9597 H         1 <0>         0.0786
     46 H16        -2.9359    9.0707   -0.1088 H         1 <0>         0.0755
     47 H17        -2.3920    9.2901    1.5813 H         1 <0>         0.0847
@<TRIPOS>BOND
     1    1    6 ar
     2    1    2 ar
     3    1   31 1
     4    2    3 ar
     5    2   18 1
     6    3    4 ar
     7    3   17 1
     8    4    5 ar
     9    4   32 1
    10    5    6 ar
    11    5   16 1
    12    6    7 1
    13    7    8 2
    14    7    9 2
    15    7   10 1
    16   10   15 1
    17   10   11 1
    18   11   12 1
    19   11   33 1
    20   11   34 1
    21   12   13 1
    22   12   35 1
    23   12   36 1
    24   13   14 1
    25   14   15 1
    26   14   37 1
    27   14   38 1
    28   15   39 1
    29   15   40 1
    30   18   19 2
    31   18   20 am
    32   20   21 1
    33   20   41 1
    34   21   25 1
    35   21   22 2
    36   22   23 1
    37   22   29 1
    38   23   28 1
    39   23   24 2
    40   24   25 1
    41   24   26 1
    42   26   27 1
    43   26   42 1
    44   26   43 1
    45   27   28 1
    46   27   44 1
    47   27   45 1
    48   28   46 1
    49   28   47 1
    50   29   30 3
