@<TRIPOS>MOLECULE
ZINC01999261
   42    44     0     0     0
SMALL
USER_CHARGES

@<TRIPOS>ATOM
      1 C1          0.3614    2.2037    0.8714 C.3       1 <0>        -0.1489
      2 C2          0.1478    0.7026    0.6659 C.3       1 <0>        -0.1242
      3 C3          0.9202   -0.0734    1.7346 C.3       1 <0>        -0.1098
      4 C4          0.7066   -1.5744    1.5291 C.3       1 <0>         0.0178
      5 C5          1.4675   -2.3388    2.5817 C.2       1 <0>        -0.4608
      6 C6          2.8046   -2.7038    2.5188 C.2       1 <0>         0.5042
      7 N1          3.1094   -3.3776    3.6591 N.am      1 <0>        -0.3732
      8 N2          1.9545   -3.4388    4.4495 N.pl3     1 <0>        -0.3728
      9 C7          0.9562   -2.7966    3.7875 C.2       1 <0>         0.5037
     10 O1         -0.2971   -2.6371    4.2201 O.3       1 <0>        -0.6529
     11 C8          1.8487   -4.0488    5.7035 C.ar      1 <0>         0.1803
     12 C9          0.8001   -4.9205    5.9672 C.ar      1 <0>        -0.1100
     13 C10         0.6986   -5.5212    7.2067 C.ar      1 <0>        -0.1045
     14 C11         1.6392   -5.2552    8.1848 C.ar      1 <0>        -0.1378
     15 C12         2.6842   -4.3873    7.9256 C.ar      1 <0>        -0.1048
     16 C13         2.7953   -3.7885    6.6861 C.ar      1 <0>        -0.1325
     17 C14         4.3579   -3.9162    3.9861 C.ar      1 <0>         0.1798
     18 C15         4.4551   -5.2291    4.4290 C.ar      1 <0>        -0.1316
     19 C16         5.6896   -5.7579    4.7511 C.ar      1 <0>        -0.1052
     20 C17         6.8280   -4.9817    4.6335 C.ar      1 <0>        -0.1373
     21 C18         6.7346   -3.6741    4.1933 C.ar      1 <0>        -0.1050
     22 C19         5.5040   -3.1413    3.8632 C.ar      1 <0>        -0.1096
     23 O2          3.6441   -2.4400    1.5145 O.2       1 <0>        -0.6522
     24 H1          1.4238    2.4339    0.7908 H         1 <0>         0.0501
     25 H2         -0.1889    2.7565    0.1100 H         1 <0>         0.0449
     26 H3          0.0015    2.4900    1.8596 H         1 <0>         0.0498
     27 H4         -0.9146    0.4724    0.7464 H         1 <0>         0.0555
     28 H5          0.5077    0.4163   -0.3223 H         1 <0>         0.0558
     29 H6          1.9826    0.1568    1.6540 H         1 <0>         0.0538
     30 H7          0.5603    0.2129    2.7228 H         1 <0>         0.0514
     31 H8         -0.3557   -1.8046    1.6096 H         1 <0>         0.0492
     32 H9          1.0665   -1.8607    0.5409 H         1 <0>         0.0461
     33 H10         0.0648   -5.1282    5.2040 H         1 <0>         0.1296
     34 H11        -0.1166   -6.1992    7.4124 H         1 <0>         0.1246
     35 H12         1.5573   -5.7259    9.1533 H         1 <0>         0.1202
     36 H13         3.4170   -4.1814    8.6918 H         1 <0>         0.1220
     37 H14         3.6143   -3.1146    6.4827 H         1 <0>         0.1189
     38 H15         3.5663   -5.8356    4.5217 H         1 <0>         0.1191
     39 H16         5.7659   -6.7786    5.0955 H         1 <0>         0.1221
     40 H17         7.7922   -5.3975    4.8864 H         1 <0>         0.1203
     41 H18         7.6256   -3.0704    4.1029 H         1 <0>         0.1245
     42 H19         5.4322   -2.1215    3.5149 H         1 <0>         0.1294
@<TRIPOS>BOND
     1    1    2 1
     2    1   24 1
     3    1   25 1
     4    1   26 1
     5    2    3 1
     6    2   27 1
     7    2   28 1
     8    3    4 1
     9    3   29 1
    10    3   30 1
    11    4   31 1
    12    4   32 1
    13    4    5 1
    14    5    6 1
    15    5    9 2
    16    6    7 am
    17    6   23 2
    18    7    8 1
    19    7   17 1
    20    8    9 1
    21    8   11 1
    22    9   10 1
    23   11   16 ar
    24   11   12 ar
    25   12   13 ar
    26   12   33 1
    27   13   14 ar
    28   13   34 1
    29   14   15 ar
    30   14   35 1
    31   15   16 ar
    32   15   36 1
    33   16   37 1
    34   17   22 ar
    35   17   18 ar
    36   18   19 ar
    37   18   38 1
    38   19   20 ar
    39   19   39 1
    40   20   21 ar
    41   20   40 1
    42   21   22 ar
    43   21   41 1
    44   22   42 1
@<TRIPOS>MOLECULE
ZINC02570895
   40    42     0     0     0
SMALL
USER_CHARGES

@<TRIPOS>ATOM
      1 C1          0.0405    1.5033    0.0105 C.3       1 <0>        -0.1224
      2 C2          0.0481   -0.0036    0.0022 C.ar      1 <0>        -0.0617
      3 C3         -0.4654   -0.6891   -1.0843 C.ar      1 <0>        -0.1180
      4 C4         -0.4609   -2.0687   -1.0981 C.ar      1 <0>        -0.0762
      5 C5          0.0630   -2.7726   -0.0133 C.ar      1 <0>        -0.0606
      6 C6          0.5793   -2.0754    1.0794 C.ar      1 <0>        -0.0985
      7 C7          0.5738   -0.6957    1.0787 C.ar      1 <0>        -0.1165
      8 C8          0.0704   -4.2518   -0.0214 C.2       1 <0>         0.1497
      9 C9          0.0778   -5.0559   -1.1264 C.2       1 <0>        -0.2047
     10 C10         0.0841   -6.3814   -0.6911 C.2       1 <0>        -0.0034
     11 N1          0.0806   -6.3920    0.6183 N.2       1 <0>        -0.2184
     12 N2          0.0772   -5.0674    1.0740 N.pl3     1 <0>        -0.3181
     13 C11         0.0780   -4.6538    2.4124 C.ar      1 <0>         0.1993
     14 C12        -0.7877   -3.6523    2.8316 C.ar      1 <0>        -0.1310
     15 C13        -0.7845   -3.2467    4.1518 C.ar      1 <0>        -0.0008
     16 C14         0.0799   -3.8365    5.0557 C.ar      1 <0>        -0.6729
     17 C15         0.9432   -4.8341    4.6414 C.ar      1 <0>         0.0013
     18 C16         0.9405   -5.2485    3.3238 C.ar      1 <0>        -0.1237
     19 S1          0.0817   -3.3155    6.7389 S.o2      1 <0>         2.7035
     20 O1          1.3615   -3.6412    7.2635 O.2       1 <0>        -0.9570
     21 O2         -0.4336   -1.9913    6.7547 O.2       1 <0>        -0.9571
     22 N3         -1.0144   -4.2595    7.5449 N.pl3     1 <0>        -1.2487
     23 C17         0.0927   -7.5984   -1.5799 C.3       1 <0>         0.5581
     24 F1          1.4144   -7.9678   -1.8518 F         1 <0>        -0.1637
     25 F2         -0.5625   -8.6523   -0.9339 F         1 <0>        -0.1639
     26 F3         -0.5656   -7.3049   -2.7789 F         1 <0>        -0.1610
     27 H1          0.9639    1.8738   -0.4347 H         1 <0>         0.0767
     28 H2         -0.8113    1.8655   -0.5652 H         1 <0>         0.0714
     29 H3         -0.0366    1.8607    1.0374 H         1 <0>         0.0715
     30 H4         -0.8709   -0.1431   -1.9232 H         1 <0>         0.1331
     31 H5         -0.8624   -2.6027   -1.9467 H         1 <0>         0.1336
     32 H6          0.9862   -2.6145    1.9221 H         1 <0>         0.1246
     33 H7          0.9772   -0.1548    1.9220 H         1 <0>         0.1315
     34 H8          0.0784   -4.7241   -2.1542 H         1 <0>         0.1732
     35 H9         -1.4626   -3.1908    2.1259 H         1 <0>         0.1459
     36 H10        -1.4576   -2.4679    4.4785 H         1 <0>         0.1580
     37 H11         1.6174   -5.2926    5.3496 H         1 <0>         0.1579
     38 H12         1.6117   -6.0309    3.0018 H         1 <0>         0.1479
     39 H13        -1.5085   -4.9443    7.0675 H         1 <0>         0.4179
     40 H14        -1.1624   -4.1277    8.4945 H         1 <0>         0.4235
@<TRIPOS>BOND
     1    1    2 1
     2    1   27 1
     3    1   28 1
     4    1   29 1
     5    2    7 ar
     6    2    3 ar
     7    3    4 ar
     8    3   30 1
     9    4    5 ar
    10    4   31 1
    11    5    6 ar
    12    5    8 1
    13    6    7 ar
    14    6   32 1
    15    7   33 1
    16    8   12 1
    17    8    9 2
    18    9   10 1
    19    9   34 1
    20   10   11 2
    21   10   23 1
    22   11   12 1
    23   12   13 1
    24   13   18 ar
    25   13   14 ar
    26   14   15 ar
    27   14   35 1
    28   15   16 ar
    29   15   36 1
    30   16   17 ar
    31   16   19 1
    32   17   18 ar
    33   17   37 1
    34   18   38 1
    35   19   20 2
    36   19   21 2
    37   19   22 1
    38   22   39 1
    39   22   40 1
    40   23   24 1
    41   23   25 1
    42   23   26 1
@<TRIPOS>MOLECULE
ZINC00607803
   41    43     0     0     0
SMALL
USER_CHARGES

@<TRIPOS>ATOM
      1 C1          0.0492    1.3148    0.4895 C.3       1 <0>         0.0224
      2 O1          0.0021   -0.0054   -0.0555 O.3       1 <0>        -0.3035
      3 C2         -1.2006   -0.6384   -0.0361 C.ar      1 <0>         0.1168
      4 C3         -2.3122    0.0031    0.4922 C.ar      1 <0>        -0.1798
      5 C4         -3.5341   -0.6356    0.5142 C.ar      1 <0>        -0.0497
      6 C5         -3.6535   -1.9291    0.0040 C.ar      1 <0>        -0.0593
      7 C6         -2.5347   -2.5723   -0.5271 C.ar      1 <0>        -0.1049
      8 C7         -1.3156   -1.9249   -0.5507 C.ar      1 <0>         0.0774
      9 F1         -0.2324   -2.5439   -1.0691 F         1 <0>        -0.1225
     10 C8         -4.9627   -2.6169    0.0267 C.2       1 <0>         0.1437
     11 C9         -6.1919   -2.0194    0.0354 C.2       1 <0>        -0.2115
     12 C10        -7.1572   -3.0266    0.0567 C.2       1 <0>         0.0081
     13 N1         -6.5511   -4.1872    0.0609 N.2       1 <0>        -0.2327
     14 N2         -5.1679   -3.9671    0.0369 N.pl3     1 <0>        -0.3256
     15 C11        -4.1740   -4.9542    0.0281 C.ar      1 <0>         0.2002
     16 C12        -3.0779   -4.8454    0.8737 C.ar      1 <0>        -0.1381
     17 C13        -2.0999   -5.8205    0.8631 C.ar      1 <0>        -0.0026
     18 C14        -2.2113   -6.9043    0.0115 C.ar      1 <0>        -0.6752
     19 C15        -3.3014   -7.0153   -0.8320 C.ar      1 <0>         0.0038
     20 C16        -4.2857   -6.0464   -0.8220 C.ar      1 <0>        -0.1252
     21 S1         -0.9615   -8.1462    0.0010 S.o2      1 <0>         2.7028
     22 O2         -1.0249   -8.7755   -1.2715 O.2       1 <0>        -0.9568
     23 O3          0.2239   -7.5336    0.4897 O.2       1 <0>        -0.9530
     24 N3         -1.3979   -9.2896    1.1166 N.pl3     1 <0>        -1.2465
     25 C17        -8.6490   -2.8140    0.0728 C.3       1 <0>         0.3605
     26 F2         -9.2637   -3.8728    0.7499 F         1 <0>        -0.1874
     27 F3         -8.9417   -1.6111    0.7244 F         1 <0>        -0.1862
     28 H1          1.0645    1.7038    0.4119 H         1 <0>         0.1081
     29 H2         -0.6309    1.9612   -0.0650 H         1 <0>         0.0619
     30 H3         -0.2499    1.2862    1.5373 H         1 <0>         0.0619
     31 H4         -2.2199    1.0041    0.8870 H         1 <0>         0.1494
     32 H5         -4.3980   -0.1354    0.9262 H         1 <0>         0.1446
     33 H6         -2.6233   -3.5733   -0.9228 H         1 <0>         0.1442
     34 H7         -6.3822   -0.9563    0.0278 H         1 <0>         0.1694
     35 H8         -2.9901   -3.9990    1.5388 H         1 <0>         0.1442
     36 H9         -1.2470   -5.7363    1.5203 H         1 <0>         0.1570
     37 H10        -3.3854   -7.8628   -1.4962 H         1 <0>         0.1569
     38 H11        -5.1390   -6.1359   -1.4780 H         1 <0>         0.1474
     39 H12        -1.1367  -10.2152    0.9901 H         1 <0>         0.4238
     40 H13        -1.9146   -9.0337    1.8966 H         1 <0>         0.4181
     41 H14        -9.0211   -2.7726   -0.9509 H         1 <0>         0.1381
@<TRIPOS>BOND
     1    1    2 1
     2    1   28 1
     3    1   29 1
     4    1   30 1
     5    2    3 1
     6    3    8 ar
     7    3    4 ar
     8    4    5 ar
     9    4   31 1
    10    5    6 ar
    11    5   32 1
    12    6    7 ar
    13    6   10 1
    14    7    8 ar
    15    7   33 1
    16    8    9 1
    17   10   14 1
    18   10   11 2
    19   11   12 1
    20   11   34 1
    21   12   13 2
    22   12   25 1
    23   13   14 1
    24   14   15 1
    25   15   20 ar
    26   15   16 ar
    27   16   17 ar
    28   16   35 1
    29   17   18 ar
    30   17   36 1
    31   18   19 ar
    32   18   21 1
    33   19   20 ar
    34   19   37 1
    35   20   38 1
    36   21   22 2
    37   21   23 2
    38   21   24 1
    39   24   39 1
    40   24   40 1
    41   25   26 1
    42   25   27 1
    43   25   41 1
@<TRIPOS>MOLECULE
ZINC28572587
   44    47     0     0     0
SMALL
USER_CHARGES
2-[5-[3-chloro-4-(2-furyl)phenyl]-3-(trifluoromethyl)pyrazol-1-yl]-5-methylsulfonyl-pyridine
@<TRIPOS>ATOM
      1 C1          0.9755   -3.0292   -1.2281 C.3       1 <0>        -0.6518
      2 S1          0.9014   -2.4455    0.4878 S.o2      1 <0>         2.5046
      3 O1          2.0879   -2.8091    1.1801 O.2       1 <0>        -0.9283
      4 O2         -0.3762   -2.7232    1.0445 O.2       1 <0>        -0.9266
      5 C2          0.9690   -0.6886    0.3718 C.ar      1 <0>        -0.7230
      6 C3          2.1911   -0.0309    0.3919 C.ar      1 <0>         0.0463
      7 C4          2.1993    1.3500    0.2987 C.ar      1 <0>        -0.1702
      8 C5          0.9906    2.0273    0.1894 C.ar      1 <0>         0.4031
      9 N1         -0.1545    1.3642    0.1737 N.ar      1 <0>        -0.4953
     10 C6         -0.1937    0.0487    0.2603 C.ar      1 <0>         0.2278
     11 N2          0.9845    3.4210    0.0947 N.pl3     1 <0>        -0.3124
     12 C7          0.0390    4.1827   -0.5334 C.2       1 <0>         0.1584
     13 C8          0.4101    5.4905   -0.3885 C.2       1 <0>        -0.1968
     14 C9          1.6048    5.5190    0.3318 C.2       1 <0>         0.0069
     15 N3          1.9494    4.2895    0.6209 N.2       1 <0>        -0.2074
     16 C10         2.3715    6.7591    0.7132 C.3       1 <0>         0.5584
     17 F1          3.5731    6.3934    1.3293 F         1 <0>        -0.1616
     18 F2          2.6456    7.5095   -0.4352 F         1 <0>        -0.1597
     19 F3          1.6073    7.5255    1.5997 F         1 <0>        -0.1602
     20 C11        -1.1624    3.6853   -1.2356 C.ar      1 <0>        -0.0219
     21 C12        -2.3199    4.4667   -1.2786 C.ar      1 <0>        -0.0734
     22 C13        -3.4389    4.0045   -1.9321 C.ar      1 <0>        -0.0849
     23 C14        -3.4183    2.7528   -2.5535 C.ar      1 <0>         0.0140
     24 C15        -2.2601    1.9705   -2.5107 C.ar      1 <0>        -0.0191
     25 C16        -1.1385    2.4367   -1.8610 C.ar      1 <0>        -0.0543
     26 Cl1        -2.2335    0.4153   -3.2817 Cl        1 <0>        -0.0505
     27 C17        -4.6189    2.2569   -3.2553 C.2       1 <0>         0.0041
     28 C18        -4.6543    1.7529   -4.5185 C.2       1 <0>        -0.1657
     29 C19        -5.9946    1.4052   -4.7791 C.2       1 <0>        -0.2137
     30 C20        -6.7038    1.7105   -3.6747 C.2       1 <0>        -0.0252
     31 O3         -5.8686    2.2195   -2.7540 O.3       1 <0>        -0.1650
     32 H1          0.0526   -2.7421   -1.7532 H         1 <0>         0.1361
     33 H2          1.0779   -4.1244   -1.2387 H         1 <0>         0.1409
     34 H3          1.8410   -2.5751   -1.7328 H         1 <0>         0.1348
     35 H4          3.1147   -0.5840    0.4785 H         1 <0>         0.1695
     36 H5          3.1322    1.8939    0.3109 H         1 <0>         0.1613
     37 H6         -1.1471   -0.4584    0.2443 H         1 <0>         0.1887
     38 H7         -0.1240    6.3489   -0.7684 H         1 <0>         0.1786
     39 H8         -2.3361    5.4342   -0.7988 H         1 <0>         0.1448
     40 H9         -4.3332    4.6091   -1.9653 H         1 <0>         0.1464
     41 H10        -0.2421    1.8351   -1.8317 H         1 <0>         0.1317
     42 H11        -3.8169    1.6407   -5.1912 H         1 <0>         0.1504
     43 H12        -6.3807    0.9758   -5.6918 H         1 <0>         0.1530
     44 H13        -7.7666    1.5652   -3.5488 H         1 <0>         0.2076
@<TRIPOS>BOND
     1    1    2 1
     2    1   32 1
     3    1   33 1
     4    1   34 1
     5    2    3 2
     6    2    4 2
     7    2    5 1
     8    5   10 ar
     9    5    6 ar
    10    6    7 ar
    11    6   35 1
    12    7    8 ar
    13    7   36 1
    14    8    9 ar
    15    8   11 1
    16    9   10 ar
    17   10   37 1
    18   11   15 1
    19   11   12 1
    20   12   13 2
    21   12   20 1
    22   13   14 1
    23   13   38 1
    24   14   15 2
    25   14   16 1
    26   16   17 1
    27   16   18 1
    28   16   19 1
    29   20   25 ar
    30   20   21 ar
    31   21   22 ar
    32   21   39 1
    33   22   23 ar
    34   22   40 1
    35   23   24 ar
    36   23   27 1
    37   24   25 ar
    38   24   26 1
    39   25   41 1
    40   27   31 1
    41   27   28 2
    42   28   29 1
    43   28   42 1
    44   29   30 2
    45   29   43 1
    46   30   31 1
    47   30   44 1
