@<TRIPOS>MOLECULE
ZINC13542842
   34    33     0     0     0
SMALL
USER_CHARGES
1-(7-aminoheptyl)guanidine
@<TRIPOS>ATOM
      1 C1          5.6688    4.5625   -0.0277 C.3       1 <0>        -0.1220
      2 C2          6.1175    6.0252   -0.0241 C.3       1 <0>        -0.1205
      3 C3          7.6460    6.0898   -0.0383 C.3       1 <0>        -0.1544
      4 C4          8.0948    7.5525   -0.0348 C.3       1 <0>        -0.0056
      5 C5          4.1402    4.4979   -0.0134 C.3       1 <0>        -0.1198
      6 C6          3.6915    3.0352   -0.0169 C.3       1 <0>        -0.1350
      7 C7          2.1629    2.9706   -0.0027 C.3       1 <0>         0.0930
      8 N1          1.7333    1.5701   -0.0061 N.pl3     1 <0>        -0.7008
      9 C8          0.3935    1.2620    0.0051 C.cat     1 <0>         0.7402
     10 N2         -0.5432    2.2684    0.0137 N.pl3     1 <0>        -0.8045
     11 H1          6.0620    4.0597    0.8559 H         1 <0>         0.0699
     12 H2          6.0450    4.0693   -0.9240 H         1 <0>         0.0699
     13 H3          5.7244    6.5280   -0.9076 H         1 <0>         0.0762
     14 H4          5.7414    6.5185    0.8721 H         1 <0>         0.0762
     15 H5          8.0392    5.5870    0.8452 H         1 <0>         0.0879
     16 H6          8.0222    5.5965   -0.9346 H         1 <0>         0.0883
     17 H7          7.7016    8.0553   -0.9184 H         1 <0>         0.1347
     18 H8          7.7186    8.0458    0.8615 H         1 <0>         0.1319
     19 H9          9.9384    7.1083   -0.8362 H         1 <0>         0.4379
     20 H10         9.8840    8.5709   -0.0464 H         1 <0>         0.4428
     21 H11         3.7470    5.0007   -0.8970 H         1 <0>         0.0732
     22 H12         3.7640    4.9911    0.8829 H         1 <0>         0.0732
     23 H13         4.0847    2.5324    0.8666 H         1 <0>         0.0815
     24 H14         4.0677    2.5420   -0.9132 H         1 <0>         0.0815
     25 H15         1.7698    3.4734   -0.8862 H         1 <0>         0.0909
     26 H16         1.7868    3.4638    0.8936 H         1 <0>         0.0908
     27 H17         2.3942    0.8601   -0.0162 H         1 <0>         0.4346
     28 H18        -0.9109   -0.3024    0.0091 H         1 <0>         0.4544
     29 H19        -1.4885    2.0510    0.0175 H         1 <0>         0.4403
     30 H20        -0.2587    3.1957    0.0160 H         1 <0>         0.4382
     31 N3          9.5674    7.6029   -0.0266 N.4       1 <0>        -0.6482
     32 H21         9.9157    7.1540    0.8287 H         1 <0>         0.4402
     33 N4          0.0703   -0.0231    0.0012 N.pl3     1 <0>        -0.7946
     34 H22         0.8073   -0.7379   -0.0097 H         1 <0>         0.4577
@<TRIPOS>BOND
     1    1    2 1
     2    1    5 1
     3    1   11 1
     4    1   12 1
     5    2    3 1
     6    2   13 1
     7    2   14 1
     8    3    4 1
     9    3   15 1
    10    3   16 1
    11    4   17 1
    12    4   18 1
    13    4   31 1
    14    5    6 1
    15    5   21 1
    16    5   22 1
    17    6    7 1
    18    6   23 1
    19    6   24 1
    20    7    8 1
    21    7   25 1
    22    7   26 1
    23    8    9 1
    24    8   27 1
    25    9   10 1
    26    9   33 2
    27   10   29 1
    28   10   30 1
    29   19   31 1
    30   20   31 1
    31   28   33 1
    32   31   32 1
    33   33   34 1
