@<TRIPOS>MOLECULE
ZINC00016827
   30    32     0     0     0
SMALL
USER_CHARGES
1,2,3,4-tetrahydroacridin-9-amine
@<TRIPOS>ATOM
      1 C1         -2.2590   -4.1734    0.7266 C.ar      1 <0>        -0.1151
      2 C2         -1.1015   -4.8453    0.3414 C.ar      1 <0>        -0.0282
      3 C3          0.0181   -4.1626   -0.0240 C.ar      1 <0>        -0.1547
      4 C4          0.0125   -2.7569   -0.0146 C.ar      1 <0>         0.1855
      5 C5         -1.1660   -2.0778    0.3770 C.ar      1 <0>        -0.1377
      6 C6         -2.3011   -2.8116    0.7474 C.ar      1 <0>        -0.0565
      7 C7         -1.1623   -0.6653    0.3817 C.ar      1 <0>         0.3675
      8 C8          0.0021   -0.0041    0.0020 C.ar      1 <0>        -0.2105
      9 C9          1.1175   -0.7361   -0.3646 C.ar      1 <0>         0.2712
     10 C10         2.4120   -0.0754   -0.7701 C.3       1 <0>        -0.1168
     11 C11         2.1762    1.3865   -1.1417 C.3       1 <0>        -0.1213
     12 C12         1.4039    2.0583   -0.0003 C.3       1 <0>        -0.1267
     13 C13        -0.0183    1.5015    0.0103 C.3       1 <0>        -0.0727
     14 N1         -2.2920    0.0458    0.7563 N.pl3     1 <0>        -0.7940
     15 H1         -3.1340   -4.7385    1.0119 H         1 <0>         0.1511
     16 H2         -1.0919   -5.9252    0.3327 H         1 <0>         0.1529
     17 H3          0.9072   -4.6991   -0.3207 H         1 <0>         0.1539
     18 H4         -3.2041   -2.3007    1.0473 H         1 <0>         0.1465
     19 H5          3.1167   -0.1260    0.0600 H         1 <0>         0.1184
     20 H6          2.8304   -0.6013   -1.6283 H         1 <0>         0.1086
     21 H7          3.1338    1.8881   -1.2812 H         1 <0>         0.0939
     22 H8          1.5929    1.4414   -2.0609 H         1 <0>         0.0797
     23 H9          1.3752    3.1361   -0.1607 H         1 <0>         0.0897
     24 H10         1.8906    1.8408    0.9505 H         1 <0>         0.0760
     25 H11        -0.5506    1.8586   -0.8713 H         1 <0>         0.0921
     26 H12        -0.5337    1.8490    0.9057 H         1 <0>         0.0852
     27 H13        -2.2768    1.0157    0.7558 H         1 <0>         0.4265
     28 H14        -3.0975   -0.4265    1.0190 H         1 <0>         0.4221
     29 N2          1.1637   -2.1007   -0.3898 N.ar      1 <0>        -0.5514
     30 H15         2.0097   -2.6092   -0.6727 H         1 <0>         0.4649
@<TRIPOS>BOND
     1    1    6 ar
     2    1    2 ar
     3    1   15 1
     4    2    3 ar
     5    2   16 1
     6    3    4 ar
     7    3   17 1
     8    4    5 ar
     9    4   29 ar
    10    5    6 ar
    11    5    7 ar
    12    6   18 1
    13    7    8 ar
    14    7   14 1
    15    8   13 1
    16    8    9 ar
    17    9   10 1
    18    9   29 ar
    19   10   11 1
    20   10   19 1
    21   10   20 1
    22   11   12 1
    23   11   21 1
    24   11   22 1
    25   12   13 1
    26   12   23 1
    27   12   24 1
    28   13   25 1
    29   13   26 1
    30   14   27 1
    31   14   28 1
    32   29   30 1
@<TRIPOS>MOLECULE
ZINC00597013
   58    61     0     0     0
SMALL
USER_CHARGES

@<TRIPOS>ATOM
      1 C1         -0.0173    1.4248    0.0099 C.3       1 <0>         0.0208
      2 O1          0.0021   -0.0041    0.0020 O.3       1 <0>        -0.2950
      3 C2          0.6051   -0.6064   -1.0545 C.ar      1 <0>         0.1532
      4 C3          1.1721    0.1632   -2.0609 C.ar      1 <0>        -0.1821
      5 C4          1.7866   -0.4410   -3.1387 C.ar      1 <0>        -0.0371
      6 C5          1.8416   -1.8340   -3.2219 C.ar      1 <0>        -0.2044
      7 C6          1.2663   -2.6106   -2.2012 C.ar      1 <0>        -0.1044
      8 C7          0.6597   -1.9984   -1.1254 C.ar      1 <0>         0.0877
      9 O2          0.1088   -2.7516   -0.1361 O.3       1 <0>        -0.3011
     10 C8          0.2013   -4.1710   -0.2735 C.3       1 <0>         0.0231
     11 C9          2.5389   -2.2531   -4.4456 C.2       1 <0>         0.4182
     12 O3          2.7420   -3.3976   -4.7923 O.2       1 <0>        -0.4477
     13 C10         2.9584   -1.0129   -5.1966 C.3       1 <0>        -0.1391
     14 H1          4.0434   -0.9806   -5.2959 H         1 <0>         0.1138
     15 C11         2.4673    0.1645   -4.3432 C.3       1 <0>        -0.0780
     16 C12         2.2994   -0.9808   -6.5770 C.3       1 <0>        -0.0982
     17 C13         2.8476   -2.1260   -7.4307 C.3       1 <0>        -0.1155
     18 C14         4.3380   -1.8972   -7.6982 C.3       1 <0>        -0.1415
     19 C15         4.8612   -3.0029   -8.6175 C.3       1 <0>        -0.0066
     20 N1          4.1252   -2.9777   -9.8872 N.4       1 <0>        -0.3801
     21 C16         2.7066   -3.2675   -9.6464 C.3       1 <0>        -0.0118
     22 C17         2.1004   -2.1720   -8.7666 C.3       1 <0>        -0.1383
     23 C18         4.6828   -3.9891  -10.7949 C.3       1 <0>         0.0438
     24 C19         4.0113   -3.8820  -12.1398 C.ar      1 <0>        -0.1605
     25 C20         2.8641   -4.6083  -12.3993 C.ar      1 <0>        -0.0978
     26 C21         2.2481   -4.5101  -13.6329 C.ar      1 <0>        -0.1135
     27 C22         2.7790   -3.6851  -14.6068 C.ar      1 <0>        -0.0847
     28 C23         3.9256   -2.9580  -14.3470 C.ar      1 <0>        -0.1130
     29 C24         4.5392   -3.0530  -13.1119 C.ar      1 <0>        -0.0942
     30 H2          1.0053    1.8021    0.0021 H         1 <0>         0.0608
     31 H3         -0.5445    1.7859   -0.8732 H         1 <0>         0.0604
     32 H4         -0.5275    1.7763    0.9067 H         1 <0>         0.1088
     33 H5          1.1317    1.2407   -2.0004 H         1 <0>         0.1449
     34 H6          1.3038   -3.6885   -2.2575 H         1 <0>         0.1426
     35 H7         -0.2763   -4.6506    0.5809 H         1 <0>         0.1075
     36 H8         -0.2996   -4.4806   -1.1908 H         1 <0>         0.0566
     37 H9          1.2502   -4.4644   -0.3155 H         1 <0>         0.0572
     38 H10         1.7583    0.7678   -4.9101 H         1 <0>         0.0961
     39 H11         3.3123    0.7764   -4.0277 H         1 <0>         0.0964
     40 H12         1.2208   -1.0934   -6.4674 H         1 <0>         0.0800
     41 H13         2.5179   -0.0293   -7.0618 H         1 <0>         0.0849
     42 H14         2.7114   -3.0706   -6.9042 H         1 <0>         0.1081
     43 H15         4.4772   -0.9286   -8.1782 H         1 <0>         0.0886
     44 H16         4.8846   -1.9188   -6.7553 H         1 <0>         0.1118
     45 H17         5.9222   -2.8432   -8.8098 H         1 <0>         0.1305
     46 H18         4.7218   -3.9711   -8.1364 H         1 <0>         0.1303
     47 H19         2.1768   -3.3031  -10.5983 H         1 <0>         0.1310
     48 H20         2.6131   -4.2300   -9.1434 H         1 <0>         0.1282
     49 H21         1.0476   -2.3899   -8.5875 H         1 <0>         0.1106
     50 H22         2.1932   -1.2090   -9.2688 H         1 <0>         0.0874
     51 H23         5.7540   -3.8234  -10.9095 H         1 <0>         0.1365
     52 H24         4.5111   -4.9828  -10.3812 H         1 <0>         0.1348
     53 H25         2.4494   -5.2529  -11.6384 H         1 <0>         0.1308
     54 H26         1.3522   -5.0781  -13.8359 H         1 <0>         0.1360
     55 H27         2.2981   -3.6088  -15.5708 H         1 <0>         0.1358
     56 H28         4.3405   -2.3138  -15.1080 H         1 <0>         0.1360
     57 H29         5.4329   -2.4822  -12.9076 H         1 <0>         0.1309
     58 H30         4.2142   -2.0651  -10.3083 H         1 <0>         0.4207
@<TRIPOS>BOND
     1    1    2 1
     2    1   30 1
     3    1   31 1
     4    1   32 1
     5    2    3 1
     6    3    8 ar
     7    3    4 ar
     8    4    5 ar
     9    4   33 1
    10    5   15 1
    11    5    6 ar
    12    6    7 ar
    13    6   11 1
    14    7    8 ar
    15    7   34 1
    16    8    9 1
    17    9   10 1
    18   10   35 1
    19   10   36 1
    20   10   37 1
    21   11   12 2
    22   11   13 1
    23   13   14 1
    24   13   15 1
    25   13   16 1
    26   15   38 1
    27   15   39 1
    28   16   17 1
    29   16   40 1
    30   16   41 1
    31   17   22 1
    32   17   18 1
    33   17   42 1
    34   18   19 1
    35   18   43 1
    36   18   44 1
    37   19   20 1
    38   19   45 1
    39   19   46 1
    40   20   21 1
    41   20   23 1
    42   20   58 1
    43   21   22 1
    44   21   47 1
    45   21   48 1
    46   22   49 1
    47   22   50 1
    48   23   24 1
    49   23   51 1
    50   23   52 1
    51   24   29 ar
    52   24   25 ar
    53   25   26 ar
    54   25   53 1
    55   26   27 ar
    56   26   54 1
    57   27   28 ar
    58   27   55 1
    59   28   29 ar
    60   28   56 1
    61   29   57 1
@<TRIPOS>MOLECULE
ZINC00897251
   58    61     0     0     0
SMALL
USER_CHARGES

@<TRIPOS>ATOM
      1 C1         -0.4000    2.7928   -9.4111 C.3       1 <0>         0.0217
      2 O1         -0.3921    3.3043   -8.0768 O.3       1 <0>        -0.2952
      3 C2          0.2864    2.5865   -7.1456 C.ar      1 <0>         0.1496
      4 C3          0.9365    1.4157   -7.5106 C.ar      1 <0>        -0.1810
      5 C4          1.6280    0.6797   -6.5702 C.ar      1 <0>        -0.0432
      6 C5          1.6776    1.1109   -5.2428 C.ar      1 <0>        -0.1980
      7 C6          1.0179    2.2969   -4.8763 C.ar      1 <0>        -0.1053
      8 C7          0.3345    3.0288   -5.8236 C.ar      1 <0>         0.0903
      9 O2         -0.2981    4.1789   -5.4680 O.3       1 <0>        -0.3013
     10 C8         -0.2072    4.5722   -4.0972 C.3       1 <0>         0.0223
     11 C9          2.4645    0.1785   -4.4238 C.2       1 <0>         0.4126
     12 O3          2.6844    0.2862   -3.2359 O.2       1 <0>        -0.4369
     13 C10         2.9517   -0.9365   -5.3169 C.3       1 <0>        -0.1385
     14 H1          2.5591   -1.8938   -4.9740 H         1 <0>         0.1136
     15 C11         2.4055   -0.6071   -6.7129 C.3       1 <0>        -0.0752
     16 C12         4.4812   -0.9687   -5.3380 C.3       1 <0>        -0.1018
     17 C13         4.9548   -2.1846   -6.1369 C.3       1 <0>        -0.0999
     18 C14         4.5565   -3.4674   -5.4014 C.3       1 <0>        -0.1473
     19 C15         5.1018   -4.6765   -6.1643 C.3       1 <0>        -0.0062
     20 N1          6.5650   -4.5904   -6.2436 N.4       1 <0>        -0.3817
     21 C16         6.9530   -3.4000   -7.0098 C.3       1 <0>        -0.0117
     22 C17         6.4789   -2.1417   -6.2794 C.3       1 <0>        -0.1414
     23 C18         7.0894   -5.7910   -6.9081 C.3       1 <0>         0.0445
     24 C19         8.5959   -5.7625   -6.8811 C.ar      1 <0>        -0.1617
     25 C20         9.2944   -5.1622   -7.9119 C.ar      1 <0>        -0.0980
     26 C21        10.6763   -5.1361   -7.8871 C.ar      1 <0>        -0.1136
     27 C22        11.3596   -5.7098   -6.8313 C.ar      1 <0>        -0.0841
     28 C23        10.6611   -6.3093   -5.8000 C.ar      1 <0>        -0.1126
     29 C24         9.2791   -6.3317   -5.8227 C.ar      1 <0>        -0.0940
     30 H2          0.6233    2.7264   -9.7808 H         1 <0>         0.0592
     31 H3         -0.8537    1.8018   -9.4176 H         1 <0>         0.0598
     32 H4         -0.9755    3.4601  -10.0527 H         1 <0>         0.1082
     33 H5          0.9006    1.0787   -8.5360 H         1 <0>         0.1432
     34 H6          1.0506    2.6377   -3.8520 H         1 <0>         0.1438
     35 H7         -0.7539    5.5035   -3.9494 H         1 <0>         0.1078
     36 H8         -0.6376    3.7942   -3.4667 H         1 <0>         0.0580
     37 H9          0.8393    4.7188   -3.8299 H         1 <0>         0.0577
     38 H10         1.7480   -1.4060   -7.0558 H         1 <0>         0.0927
     39 H11         3.2285   -0.4716   -7.4146 H         1 <0>         0.0925
     40 H12         4.8574   -0.0583   -5.8047 H         1 <0>         0.0823
     41 H13         4.8574   -1.0358   -4.3172 H         1 <0>         0.0822
     42 H14         4.4958   -2.1724   -7.1255 H         1 <0>         0.0950
     43 H15         4.9736   -3.4540   -4.3944 H         1 <0>         0.0914
     44 H16         3.4699   -3.5323   -5.3452 H         1 <0>         0.1144
     45 H17         4.8199   -5.5916   -5.6435 H         1 <0>         0.1311
     46 H18         4.6840   -4.6890   -7.1710 H         1 <0>         0.1295
     47 H19         8.0378   -3.3726   -7.1131 H         1 <0>         0.1315
     48 H20         6.4957   -3.4397   -7.9984 H         1 <0>         0.1282
     49 H21         6.7664   -1.2591   -6.8507 H         1 <0>         0.1129
     50 H22         6.9359   -2.1009   -5.2906 H         1 <0>         0.0893
     51 H23         6.7334   -6.6795   -6.3867 H         1 <0>         0.1365
     52 H24         6.7449   -5.8138   -7.9420 H         1 <0>         0.1348
     53 H25         8.7606   -4.7139   -8.7368 H         1 <0>         0.1306
     54 H26        11.2221   -4.6677   -8.6928 H         1 <0>         0.1361
     55 H27        12.4393   -5.6901   -6.8123 H         1 <0>         0.1360
     56 H28        11.1949   -6.7579   -4.9753 H         1 <0>         0.1363
     57 H29         8.7332   -6.7968   -5.0151 H         1 <0>         0.1311
     58 H30         6.9482   -4.5293   -5.3123 H         1 <0>         0.4220
@<TRIPOS>BOND
     1    1    2 1
     2    1   30 1
     3    1   31 1
     4    1   32 1
     5    2    3 1
     6    3    8 ar
     7    3    4 ar
     8    4    5 ar
     9    4   33 1
    10    5   15 1
    11    5    6 ar
    12    6    7 ar
    13    6   11 1
    14    7    8 ar
    15    7   34 1
    16    8    9 1
    17    9   10 1
    18   10   35 1
    19   10   36 1
    20   10   37 1
    21   11   12 2
    22   11   13 1
    23   13   14 1
    24   13   15 1
    25   13   16 1
    26   15   38 1
    27   15   39 1
    28   16   17 1
    29   16   40 1
    30   16   41 1
    31   17   22 1
    32   17   18 1
    33   17   42 1
    34   18   19 1
    35   18   43 1
    36   18   44 1
    37   19   20 1
    38   19   45 1
    39   19   46 1
    40   20   21 1
    41   20   23 1
    42   20   58 1
    43   21   22 1
    44   21   47 1
    45   21   48 1
    46   22   49 1
    47   22   50 1
    48   23   24 1
    49   23   51 1
    50   23   52 1
    51   24   29 ar
    52   24   25 ar
    53   25   26 ar
    54   25   53 1
    55   26   27 ar
    56   26   54 1
    57   27   28 ar
    58   27   55 1
    59   28   29 ar
    60   28   56 1
    61   29   57 1
@<TRIPOS>MOLECULE
ZINC14947264
   70    75     0     0     0
SMALL
USER_CHARGES
N,N'-bis(1,2,3,4-tetrahydroacridin-9-yl)butane-1,4-diamine
@<TRIPOS>ATOM
      1 C1         -0.7880    7.2581   -3.4701 C.ar      1 <0>        -0.0960
      2 C2         -0.6937    7.9304   -2.2540 C.ar      1 <0>        -0.0300
      3 C3         -0.8013    7.2629   -1.0726 C.ar      1 <0>        -0.1473
      4 C4         -1.0120    5.8730   -1.0730 C.ar      1 <0>         0.1643
      5 C5         -1.1091    5.1938   -2.3110 C.ar      1 <0>        -0.1231
      6 C6         -0.9925    5.9115   -3.5089 C.ar      1 <0>        -0.0746
      7 C7         -1.3240    3.7976   -2.3009 C.ar      1 <0>         0.2724
      8 C8         -1.4302    3.1520   -1.0726 C.ar      1 <0>        -0.1180
      9 C9         -1.3200    3.8825    0.0975 C.ar      1 <0>         0.2596
     10 C10        -1.4110    3.2358    1.4577 C.3       1 <0>        -0.1213
     11 C11        -2.0623    1.8589    1.3562 C.3       1 <0>        -0.1223
     12 C12        -1.3315    1.0554    0.2741 C.3       1 <0>        -0.1337
     13 C13        -1.6654    1.6648   -1.0860 C.3       1 <0>        -0.0654
     14 N1         -1.4271    3.0872   -3.4870 N.pl3     1 <0>        -0.6447
     15 C14        -2.7957    3.1448   -4.0179 C.3       1 <0>         0.0615
     16 C15        -2.8992    2.2558   -5.2588 C.3       1 <0>        -0.1195
     17 C16        -4.3245    2.3158   -5.8117 C.3       1 <0>        -0.1216
     18 C17        -4.4280    1.4268   -7.0526 C.3       1 <0>         0.0599
     19 N2         -5.7965    1.4844   -7.5835 N.pl3     1 <0>        -0.6455
     20 C18        -5.9457    0.6317   -8.6665 C.ar      1 <0>         0.2727
     21 C19        -6.2160   -0.7413   -8.4736 C.ar      1 <0>        -0.1233
     22 C20        -6.3515   -1.2912   -7.1917 C.ar      1 <0>        -0.0745
     23 C21        -6.6189   -2.6201   -7.0538 C.ar      1 <0>        -0.0962
     24 C22        -6.7640   -3.4381   -8.1716 C.ar      1 <0>        -0.0302
     25 C23        -6.6431   -2.9347   -9.4305 C.ar      1 <0>        -0.1472
     26 C24        -6.3680   -1.5681   -9.6122 C.ar      1 <0>         0.1645
     27 C25        -5.9807    0.2367  -11.0334 C.ar      1 <0>         0.2590
     28 C26        -5.8268    1.1074   -9.9689 C.ar      1 <0>        -0.1161
     29 C27        -5.5365    2.5737  -10.1504 C.3       1 <0>        -0.0644
     30 C28        -5.0211    2.8485  -11.5617 C.3       1 <0>        -0.1335
     31 C29        -5.9918    2.2100  -12.5620 C.3       1 <0>        -0.1234
     32 C30        -5.8549    0.6924  -12.4664 C.3       1 <0>        -0.1206
     33 H1         -0.6985    7.8110   -4.3936 H         1 <0>         0.1545
     34 H2         -0.5323    8.9983   -2.2482 H         1 <0>         0.1576
     35 H3         -0.7254    7.7992   -0.1382 H         1 <0>         0.1573
     36 H4         -1.0635    5.4001   -4.4575 H         1 <0>         0.1484
     37 H5         -0.4087    3.1288    1.8726 H         1 <0>         0.1245
     38 H6         -2.0065    3.8675    2.1168 H         1 <0>         0.1128
     39 H7         -3.1122    1.9695    1.0849 H         1 <0>         0.0792
     40 H8         -1.9824    1.3431    2.3131 H         1 <0>         0.0973
     41 H9         -1.6613    0.0169    0.3022 H         1 <0>         0.0914
     42 H10        -0.2560    1.1039    0.4442 H         1 <0>         0.0766
     43 H11        -1.0348    1.2081   -1.8489 H         1 <0>         0.1063
     44 H12        -2.7116    1.4685   -1.3207 H         1 <0>         0.0914
     45 H13        -0.7610    3.4209   -4.1675 H         1 <0>         0.3763
     46 H14        -3.4947    2.7926   -3.2593 H         1 <0>         0.0903
     47 H15        -3.0383    4.1730   -4.2863 H         1 <0>         0.0577
     48 H16        -2.2001    2.6079   -6.0174 H         1 <0>         0.0758
     49 H17        -2.6565    1.2276   -4.9904 H         1 <0>         0.0840
     50 H18        -5.0236    1.9636   -5.0532 H         1 <0>         0.0744
     51 H19        -4.5671    3.3440   -6.0801 H         1 <0>         0.0848
     52 H20        -3.7289    1.7790   -7.8112 H         1 <0>         0.0925
     53 H21        -4.1854    0.3986   -6.7843 H         1 <0>         0.0562
     54 H22        -6.4726    1.2766   -6.8639 H         1 <0>         0.3761
     55 H23        -6.2409   -0.6659   -6.3181 H         1 <0>         0.1480
     56 H24        -6.7193   -3.0444   -6.0656 H         1 <0>         0.1541
     57 H25        -6.9753   -4.4887   -8.0375 H         1 <0>         0.1575
     58 H26        -6.7586   -3.5827  -10.2867 H         1 <0>         0.1574
     59 H27        -6.4502    3.1443   -9.9841 H         1 <0>         0.1005
     60 H28        -4.7828    2.8832   -9.4264 H         1 <0>         0.0974
     61 H29        -4.9726    3.9240  -11.7321 H         1 <0>         0.0919
     62 H30        -4.0293    2.4126  -11.6819 H         1 <0>         0.0739
     63 H31        -7.0134    2.5018  -12.3184 H         1 <0>         0.0817
     64 H32        -5.7474    2.5402  -13.5716 H         1 <0>         0.0975
     65 H33        -6.6370    0.2228  -13.0628 H         1 <0>         0.1134
     66 H34        -4.8804    0.3946  -12.8533 H         1 <0>         0.1235
     67 N3         -1.1159    5.2319    0.1415 N.ar      1 <0>        -0.5129
     68 H35        -1.0439    5.7404    1.0306 H         1 <0>         0.4706
     69 N4         -6.2524   -1.0948  -10.9005 N.ar      1 <0>        -0.5124
     70 H36        -6.3644   -1.7091  -11.7156 H         1 <0>         0.4708
@<TRIPOS>BOND
     1    1    6 ar
     2    1    2 ar
     3    1   33 1
     4    2    3 ar
     5    2   34 1
     6    3    4 ar
     7    3   35 1
     8    4    5 ar
     9    4   67 ar
    10    5    6 ar
    11    5    7 ar
    12    6   36 1
    13    7    8 ar
    14    7   14 1
    15    8   13 1
    16    8    9 ar
    17    9   10 1
    18    9   67 ar
    19   10   11 1
    20   10   37 1
    21   10   38 1
    22   11   12 1
    23   11   39 1
    24   11   40 1
    25   12   13 1
    26   12   41 1
    27   12   42 1
    28   13   43 1
    29   13   44 1
    30   14   15 1
    31   14   45 1
    32   15   16 1
    33   15   46 1
    34   15   47 1
    35   16   17 1
    36   16   48 1
    37   16   49 1
    38   17   18 1
    39   17   50 1
    40   17   51 1
    41   18   19 1
    42   18   52 1
    43   18   53 1
    44   19   20 1
    45   19   54 1
    46   20   28 ar
    47   20   21 ar
    48   21   26 ar
    49   21   22 ar
    50   22   23 ar
    51   22   55 1
    52   23   24 ar
    53   23   56 1
    54   24   25 ar
    55   24   57 1
    56   25   26 ar
    57   25   58 1
    58   26   69 ar
    59   27   32 1
    60   27   28 ar
    61   27   69 ar
    62   28   29 1
    63   29   30 1
    64   29   59 1
    65   29   60 1
    66   30   31 1
    67   30   61 1
    68   30   62 1
    69   31   32 1
    70   31   63 1
    71   31   64 1
    72   32   65 1
    73   32   66 1
    74   67   68 1
    75   69   70 1
@<TRIPOS>MOLECULE
ZINC18172743
   62    67     0     0     0
SMALL
USER_CHARGES
N,N'-bis(1,2,3,4-tetrahydroacridin-9-yl)ethane-1,2-diamine
@<TRIPOS>ATOM
      1 C1         -0.7824    7.2470   -3.4677 C.ar      1 <0>        -0.1108
      2 C2         -0.6853    7.9194   -2.2519 C.ar      1 <0>        -0.1011
      3 C3         -0.7947    7.2527   -1.0702 C.ar      1 <0>        -0.0915
      4 C4         -1.0089    5.8634   -1.0699 C.ar      1 <0>         0.1438
      5 C5         -1.1071    5.1838   -2.3075 C.ar      1 <0>        -0.1316
      6 C6         -0.9899    5.9008   -3.5059 C.ar      1 <0>        -0.1056
      7 C7         -1.3233    3.7878   -2.2969 C.ar      1 <0>         0.1470
      8 C8         -1.4294    3.1427   -1.0683 C.ar      1 <0>        -0.1109
      9 C9         -1.3189    3.8737    0.1015 C.ar      1 <0>         0.1761
     10 N1         -1.1198    5.1805    0.0705 N.ar      1 <0>        -0.4869
     11 C10        -1.4104    3.2277    1.4620 C.3       1 <0>        -0.0709
     12 C11        -2.0618    1.8508    1.3610 C.3       1 <0>        -0.1204
     13 C12        -1.3310    1.0468    0.2793 C.3       1 <0>        -0.1244
     14 C13        -1.6649    1.6555   -1.0811 C.3       1 <0>        -0.0641
     15 N2         -1.4278    3.0770   -3.4827 N.pl3     1 <0>        -0.6369
     16 C14        -2.7966    3.1356   -4.0127 C.3       1 <0>         0.0649
     17 C15        -2.9017    2.2463   -5.2533 C.3       1 <0>         0.0647
     18 N3         -4.2705    2.3049   -5.7832 N.pl3     1 <0>        -0.6378
     19 C16        -4.4210    1.4520   -6.8660 C.ar      1 <0>         0.1471
     20 C17        -4.6923    0.0793   -6.6725 C.ar      1 <0>        -0.1314
     21 C18        -4.8283   -0.4700   -5.3904 C.ar      1 <0>        -0.1052
     22 C19        -5.0957   -1.7989   -5.2519 C.ar      1 <0>        -0.1106
     23 C20        -5.2410   -2.6173   -6.3694 C.ar      1 <0>        -0.1012
     24 C21        -5.1204   -2.1143   -7.6285 C.ar      1 <0>        -0.0913
     25 C22        -4.8449   -0.7479   -7.8108 C.ar      1 <0>         0.1436
     26 N4         -4.7202   -0.2238   -9.0311 N.ar      1 <0>        -0.4864
     27 C23        -4.4574    1.0563   -9.2327 C.ar      1 <0>         0.1755
     28 C24        -4.3026    1.9273   -8.1686 C.ar      1 <0>        -0.1098
     29 C25        -4.0118    3.3934   -8.3506 C.3       1 <0>        -0.0623
     30 C26        -3.4969    3.6676   -9.7622 C.3       1 <0>        -0.1251
     31 C27        -4.4684    3.0292  -10.7619 C.3       1 <0>        -0.1206
     32 C28        -4.3320    1.5116  -10.6659 C.3       1 <0>        -0.0706
     33 H1         -0.6925    7.7993   -4.3914 H         1 <0>         0.1283
     34 H2         -0.5210    8.9868   -2.2466 H         1 <0>         0.1313
     35 H3         -0.7175    7.7893   -0.1361 H         1 <0>         0.1362
     36 H4         -1.0638    5.3895   -4.4543 H         1 <0>         0.1219
     37 H5         -0.4082    3.1208    1.8772 H         1 <0>         0.0873
     38 H6         -2.0060    3.8597    2.1206 H         1 <0>         0.0875
     39 H7         -3.1117    1.9613    1.0896 H         1 <0>         0.0665
     40 H8         -1.9820    1.3354    2.3181 H         1 <0>         0.0754
     41 H9         -1.6608    0.0082    0.3079 H         1 <0>         0.0714
     42 H10        -0.2554    1.0953    0.4494 H         1 <0>         0.0670
     43 H11        -1.0345    1.1984   -1.8438 H         1 <0>         0.0871
     44 H12        -2.7111    1.4594   -1.3155 H         1 <0>         0.0719
     45 H13        -0.7618    3.4099   -4.1637 H         1 <0>         0.3579
     46 H14        -3.4955    2.7843   -3.2536 H         1 <0>         0.0786
     47 H15        -3.0385    4.1639   -4.2813 H         1 <0>         0.0545
     48 H16        -2.2028    2.5976   -6.0124 H         1 <0>         0.0802
     49 H17        -2.6597    1.2180   -4.9847 H         1 <0>         0.0541
     50 H18        -4.9462    2.0978   -5.0631 H         1 <0>         0.3573
     51 H19        -4.7171    0.1555   -4.5170 H         1 <0>         0.1215
     52 H20        -5.1959   -2.2227   -4.2636 H         1 <0>         0.1281
     53 H21        -5.4523   -3.6678   -6.2349 H         1 <0>         0.1312
     54 H22        -5.2364   -2.7626   -8.4845 H         1 <0>         0.1361
     55 H23        -4.9252    3.9644   -8.1840 H         1 <0>         0.0803
     56 H24        -3.2576    3.7028   -7.6271 H         1 <0>         0.0782
     57 H25        -3.4481    4.7430   -9.9331 H         1 <0>         0.0717
     58 H26        -2.5054    3.2312   -9.8828 H         1 <0>         0.0652
     59 H27        -5.4898    3.3214  -10.5179 H         1 <0>         0.0681
     60 H28        -4.2244    3.3590  -11.7717 H         1 <0>         0.0753
     61 H29        -5.1147    1.0421  -11.2618 H         1 <0>         0.0878
     62 H30        -3.3578    1.2132  -11.0532 H         1 <0>         0.0867
@<TRIPOS>BOND
     1    1    6 ar
     2    1    2 ar
     3    1   33 1
     4    2    3 ar
     5    2   34 1
     6    3    4 ar
     7    3   35 1
     8    4   10 ar
     9    4    5 ar
    10    5    6 ar
    11    5    7 ar
    12    6   36 1
    13    7    8 ar
    14    7   15 1
    15    8   14 1
    16    8    9 ar
    17    9   10 ar
    18    9   11 1
    19   11   12 1
    20   11   37 1
    21   11   38 1
    22   12   13 1
    23   12   39 1
    24   12   40 1
    25   13   14 1
    26   13   41 1
    27   13   42 1
    28   14   43 1
    29   14   44 1
    30   15   16 1
    31   15   45 1
    32   16   17 1
    33   16   46 1
    34   16   47 1
    35   17   18 1
    36   17   48 1
    37   17   49 1
    38   18   19 1
    39   18   50 1
    40   19   28 ar
    41   19   20 ar
    42   20   25 ar
    43   20   21 ar
    44   21   22 ar
    45   21   51 1
    46   22   23 ar
    47   22   52 1
    48   23   24 ar
    49   23   53 1
    50   24   25 ar
    51   24   54 1
    52   25   26 ar
    53   26   27 ar
    54   27   32 1
    55   27   28 ar
    56   28   29 1
    57   29   30 1
    58   29   55 1
    59   29   56 1
    60   30   31 1
    61   30   57 1
    62   30   58 1
    63   31   32 1
    64   31   59 1
    65   31   60 1
    66   32   61 1
    67   32   62 1
@<TRIPOS>MOLECULE
ZINC18172743
   63    68     0     0     0
SMALL
USER_CHARGES
N,N'-bis(1,2,3,4-tetrahydroacridin-9-yl)ethane-1,2-diamine
@<TRIPOS>ATOM
      1 C1         -0.7824    7.2470   -3.4677 C.ar      1 <0>        -0.0977
      2 C2         -0.6853    7.9194   -2.2519 C.ar      1 <0>        -0.0296
      3 C3         -0.7947    7.2527   -1.0702 C.ar      1 <0>        -0.1501
      4 C4         -1.0089    5.8634   -1.0699 C.ar      1 <0>         0.1649
      5 C5         -1.1071    5.1838   -2.3075 C.ar      1 <0>        -0.1229
      6 C6         -0.9899    5.9008   -3.5059 C.ar      1 <0>        -0.0702
      7 C7         -1.3233    3.7878   -2.2969 C.ar      1 <0>         0.2783
      8 C8         -1.4294    3.1427   -1.0683 C.ar      1 <0>        -0.1179
      9 C9         -1.3189    3.8737    0.1015 C.ar      1 <0>         0.2582
     10 C10        -1.4104    3.2277    1.4620 C.3       1 <0>        -0.1194
     11 C11        -2.0618    1.8508    1.3610 C.3       1 <0>        -0.1224
     12 C12        -1.3310    1.0468    0.2793 C.3       1 <0>        -0.1325
     13 C13        -1.6649    1.6555   -1.0811 C.3       1 <0>        -0.0678
     14 N1         -1.4278    3.0770   -3.4827 N.pl3     1 <0>        -0.6431
     15 C14        -2.7966    3.1356   -4.0127 C.3       1 <0>         0.0620
     16 C15        -2.9017    2.2463   -5.2533 C.3       1 <0>         0.0599
     17 N2         -4.2705    2.3049   -5.7832 N.pl3     1 <0>        -0.6345
     18 C16        -4.4210    1.4520   -6.8660 C.ar      1 <0>         0.1357
     19 C17        -4.6923    0.0793   -6.6725 C.ar      1 <0>        -0.1289
     20 C18        -4.8283   -0.4700   -5.3904 C.ar      1 <0>        -0.1130
     21 C19        -5.0957   -1.7989   -5.2519 C.ar      1 <0>        -0.1047
     22 C20        -5.2410   -2.6173   -6.3694 C.ar      1 <0>        -0.1023
     23 C21        -5.1204   -2.1143   -7.6285 C.ar      1 <0>        -0.0859
     24 C22        -4.8449   -0.7479   -7.8108 C.ar      1 <0>         0.1434
     25 N3         -4.7202   -0.2238   -9.0311 N.ar      1 <0>        -0.4800
     26 C23        -4.4574    1.0563   -9.2327 C.ar      1 <0>         0.1759
     27 C24        -4.3026    1.9273   -8.1686 C.ar      1 <0>        -0.1035
     28 C25        -4.0118    3.3934   -8.3506 C.3       1 <0>        -0.0608
     29 C26        -3.4969    3.6676   -9.7622 C.3       1 <0>        -0.1259
     30 C27        -4.4684    3.0292  -10.7619 C.3       1 <0>        -0.1216
     31 C28        -4.3320    1.5116  -10.6659 C.3       1 <0>        -0.0731
     32 H1         -0.6925    7.7993   -4.3914 H         1 <0>         0.1546
     33 H2         -0.5210    8.9868   -2.2466 H         1 <0>         0.1562
     34 H3         -0.7175    7.7893   -0.1361 H         1 <0>         0.1557
     35 H4         -1.0638    5.3895   -4.4543 H         1 <0>         0.1506
     36 H5         -0.4082    3.1208    1.8772 H         1 <0>         0.1229
     37 H6         -2.0060    3.8597    2.1206 H         1 <0>         0.1115
     38 H7         -3.1117    1.9613    1.0896 H         1 <0>         0.0798
     39 H8         -1.9820    1.3354    2.3181 H         1 <0>         0.0961
     40 H9         -1.6608    0.0082    0.3079 H         1 <0>         0.0915
     41 H10        -0.2554    1.0953    0.4494 H         1 <0>         0.0758
     42 H11        -1.0345    1.1984   -1.8438 H         1 <0>         0.1075
     43 H12        -2.7111    1.4594   -1.3155 H         1 <0>         0.0927
     44 H13        -0.7618    3.4099   -4.1637 H         1 <0>         0.3781
     45 H14        -3.4955    2.7843   -3.2536 H         1 <0>         0.0902
     46 H15        -3.0385    4.1639   -4.2813 H         1 <0>         0.0693
     47 H16        -2.2028    2.5976   -6.0124 H         1 <0>         0.0862
     48 H17        -2.6597    1.2180   -4.9847 H         1 <0>         0.0599
     49 H18        -4.9462    2.0978   -5.0631 H         1 <0>         0.3578
     50 H19        -4.7171    0.1555   -4.5170 H         1 <0>         0.1182
     51 H20        -5.1959   -2.2227   -4.2636 H         1 <0>         0.1285
     52 H21        -5.4523   -3.6678   -6.2349 H         1 <0>         0.1337
     53 H22        -5.2364   -2.7626   -8.4845 H         1 <0>         0.1389
     54 H23        -4.9252    3.9644   -8.1840 H         1 <0>         0.0812
     55 H24        -3.2576    3.7028   -7.6271 H         1 <0>         0.0749
     56 H25        -3.4481    4.7430   -9.9331 H         1 <0>         0.0724
     57 H26        -2.5054    3.2312   -9.8828 H         1 <0>         0.0656
     58 H27        -5.4898    3.3214  -10.5179 H         1 <0>         0.0689
     59 H28        -4.2244    3.3590  -11.7717 H         1 <0>         0.0778
     60 H29        -5.1147    1.0421  -11.2618 H         1 <0>         0.0904
     61 H30        -3.3578    1.2132  -11.0532 H         1 <0>         0.0885
     62 N4         -1.1138    5.2229    0.1449 N.ar      1 <0>        -0.5147
     63 H31        -1.0418    5.7318    1.0338 H         1 <0>         0.4690
@<TRIPOS>BOND
     1    1    6 ar
     2    1    2 ar
     3    1   32 1
     4    2    3 ar
     5    2   33 1
     6    3    4 ar
     7    3   34 1
     8    4    5 ar
     9    4   62 ar
    10    5    6 ar
    11    5    7 ar
    12    6   35 1
    13    7    8 ar
    14    7   14 1
    15    8   13 1
    16    8    9 ar
    17    9   10 1
    18    9   62 ar
    19   10   11 1
    20   10   36 1
    21   10   37 1
    22   11   12 1
    23   11   38 1
    24   11   39 1
    25   12   13 1
    26   12   40 1
    27   12   41 1
    28   13   42 1
    29   13   43 1
    30   14   15 1
    31   14   44 1
    32   15   16 1
    33   15   45 1
    34   15   46 1
    35   16   17 1
    36   16   47 1
    37   16   48 1
    38   17   18 1
    39   17   49 1
    40   18   27 ar
    41   18   19 ar
    42   19   24 ar
    43   19   20 ar
    44   20   21 ar
    45   20   50 1
    46   21   22 ar
    47   21   51 1
    48   22   23 ar
    49   22   52 1
    50   23   24 ar
    51   23   53 1
    52   24   25 ar
    53   25   26 ar
    54   26   31 1
    55   26   27 ar
    56   27   28 1
    57   28   29 1
    58   28   54 1
    59   28   55 1
    60   29   30 1
    61   29   56 1
    62   29   57 1
    63   30   31 1
    64   30   58 1
    65   30   59 1
    66   31   60 1
    67   31   61 1
    68   62   63 1
@<TRIPOS>MOLECULE
ZINC01893945
   79    84     0     0     0
SMALL
USER_CHARGES

@<TRIPOS>ATOM
      1 C1         -4.3674  -12.0500   -0.6935 C.ar      1 <0>        -0.1084
      2 C2         -3.2283  -12.4382    0.0076 C.ar      1 <0>        -0.0299
      3 C3         -2.0127  -12.4917   -0.6026 C.ar      1 <0>        -0.1478
      4 C4         -1.8984  -12.1507   -1.9615 C.ar      1 <0>         0.1538
      5 C5         -3.0585  -11.7581   -2.6709 C.ar      1 <0>        -0.1057
      6 C6         -4.2945  -11.7134   -2.0119 C.ar      1 <0>        -0.0611
      7 C7         -2.9337  -11.4204   -4.0369 C.ar      1 <0>         0.3440
      8 C8         -1.6732  -11.4852   -4.6233 C.ar      1 <0>        -0.1441
      9 C9         -0.5831  -11.8727   -3.8640 C.ar      1 <0>         0.2496
     10 N1         -0.7214  -12.1902   -2.5879 N.ar      1 <0>        -0.4773
     11 C10         0.8097  -11.9455   -4.4399 C.3       1 <0>        -0.1140
     12 C11         0.7589  -11.9899   -5.9651 C.3       1 <0>        -0.1221
     13 C12        -0.1140  -10.8287   -6.4553 C.3       1 <0>        -0.1317
     14 C13        -1.5646  -11.1271   -6.0818 C.3       1 <0>        -0.0717
     15 N2         -4.0410  -11.0339   -4.7762 N.pl3     1 <0>        -0.7950
     16 C14        -4.4753   -9.6347   -4.7678 C.3       1 <0>         0.1342
     17 C15        -5.4341   -9.4053   -3.5978 C.3       1 <0>        -0.1553
     18 C16        -5.8877   -7.9441   -3.5892 C.3       1 <0>        -0.1209
     19 C17        -6.8465   -7.7147   -2.4192 C.3       1 <0>        -0.1174
     20 C18        -7.3001   -6.2534   -2.4105 C.3       1 <0>        -0.1208
     21 C19        -8.2589   -6.0240   -1.2405 C.3       1 <0>        -0.1454
     22 C20        -8.7124   -4.5628   -1.2318 C.3       1 <0>         0.1352
     23 N3         -9.6305   -4.3431   -0.1115 N.pl3     1 <0>        -0.7952
     24 C21       -10.9513   -3.9988   -0.3549 C.ar      1 <0>         0.3431
     25 C22       -11.9243   -4.9933   -0.5993 C.ar      1 <0>        -0.1056
     26 C23       -11.5974   -6.3561   -0.6049 C.ar      1 <0>        -0.0599
     27 C24       -12.5693   -7.2807   -0.8438 C.ar      1 <0>        -0.1060
     28 C25       -13.8839   -6.8879   -1.0830 C.ar      1 <0>        -0.0301
     29 C26       -14.2345   -5.5726   -1.0849 C.ar      1 <0>        -0.1466
     30 C27       -13.2589   -4.5899   -0.8428 C.ar      1 <0>         0.1534
     31 N4        -13.5687   -3.2925   -0.8408 N.ar      1 <0>        -0.4769
     32 C28       -12.6724   -2.3467   -0.6160 C.ar      1 <0>         0.2497
     33 C29       -11.3506   -2.6657   -0.3584 C.ar      1 <0>        -0.1441
     34 C30       -10.3007   -1.6241   -0.0753 C.3       1 <0>        -0.0711
     35 C31       -10.7756   -0.2454   -0.5294 C.3       1 <0>        -0.1323
     36 C32       -12.1684    0.0035    0.0612 C.3       1 <0>        -0.1214
     37 C33       -13.1598   -0.9191   -0.6521 C.3       1 <0>        -0.1143
     38 H1         -5.3209  -12.0198   -0.1872 H         1 <0>         0.1503
     39 H2         -3.3108  -12.7004    1.0520 H         1 <0>         0.1557
     40 H3         -1.1392  -12.7948   -0.0446 H         1 <0>         0.1568
     41 H4         -5.1842  -11.4141   -2.5460 H         1 <0>         0.1614
     42 H5          1.3753  -11.0687   -4.1245 H         1 <0>         0.1235
     43 H6          1.3047  -12.8437   -4.0705 H         1 <0>         0.1133
     44 H7          1.7663  -11.8866   -6.3684 H         1 <0>         0.0985
     45 H8          0.3262  -12.9361   -6.2899 H         1 <0>         0.0815
     46 H9          0.2052   -9.9023   -5.9777 H         1 <0>         0.0750
     47 H10        -0.0254  -10.7341   -7.5375 H         1 <0>         0.0922
     48 H11        -1.9268  -11.9601   -6.6843 H         1 <0>         0.0966
     49 H12        -2.1756  -10.2470   -6.2822 H         1 <0>         0.0969
     50 H13        -4.5282  -11.6898   -5.2989 H         1 <0>         0.4197
     51 H14        -3.6067   -8.9853   -4.6585 H         1 <0>         0.0703
     52 H15        -4.9839   -9.4066   -5.7045 H         1 <0>         0.0922
     53 H16        -6.3027  -10.0547   -3.7072 H         1 <0>         0.0723
     54 H17        -4.9255   -9.6334   -2.6612 H         1 <0>         0.0671
     55 H18        -5.0191   -7.2947   -3.4798 H         1 <0>         0.0652
     56 H19        -6.3963   -7.7159   -4.5258 H         1 <0>         0.0685
     57 H20        -7.7151   -8.3640   -2.5285 H         1 <0>         0.0628
     58 H21        -6.3379   -7.9428   -1.4825 H         1 <0>         0.0620
     59 H22        -6.4315   -5.6041   -2.3011 H         1 <0>         0.0681
     60 H23        -7.8087   -6.0253   -3.3471 H         1 <0>         0.0655
     61 H24        -9.1275   -6.6734   -1.3498 H         1 <0>         0.0663
     62 H25        -7.7503   -6.2522   -0.3038 H         1 <0>         0.0718
     63 H26        -7.8439   -3.9134   -1.1224 H         1 <0>         0.0785
     64 H27        -9.2210   -4.3347   -2.1685 H         1 <0>         0.0735
     65 H28        -9.3144   -4.4385    0.8006 H         1 <0>         0.4186
     66 H29       -10.5810   -6.6715   -0.4211 H         1 <0>         0.1572
     67 H30       -12.3171   -8.3309   -0.8481 H         1 <0>         0.1508
     68 H31       -14.6372   -7.6388   -1.2703 H         1 <0>         0.1563
     69 H32       -15.2585   -5.2850   -1.2720 H         1 <0>         0.1571
     70 H33       -10.0980   -1.5998    0.9954 H         1 <0>         0.0961
     71 H34        -9.3854   -1.8824   -0.6080 H         1 <0>         0.0967
     72 H35       -10.0836    0.5174   -0.1725 H         1 <0>         0.0917
     73 H36       -10.8274   -0.2147   -1.6178 H         1 <0>         0.0754
     74 H37       -12.1574   -0.2131    1.1294 H         1 <0>         0.0821
     75 H38       -12.4554    1.0423   -0.1022 H         1 <0>         0.0982
     76 H39       -13.2782   -0.6061   -1.6895 H         1 <0>         0.1244
     77 H40       -14.1230   -0.8554   -0.1460 H         1 <0>         0.1127
     78 H41         0.0637  -12.4627   -2.0878 H         1 <0>         0.4430
     79 H42       -14.4876   -3.0326   -1.0112 H         1 <0>         0.4432
@<TRIPOS>BOND
     1    1    6 ar
     2    1    2 ar
     3    1   38 1
     4    2    3 ar
     5    2   39 1
     6    3    4 ar
     7    3   40 1
     8    4   10 ar
     9    4    5 ar
    10    5    6 ar
    11    5    7 ar
    12    6   41 1
    13    7    8 ar
    14    7   15 1
    15    8   14 1
    16    8    9 ar
    17    9   10 ar
    18    9   11 1
    19   10   78 1
    20   11   12 1
    21   11   42 1
    22   11   43 1
    23   12   13 1
    24   12   44 1
    25   12   45 1
    26   13   14 1
    27   13   46 1
    28   13   47 1
    29   14   48 1
    30   14   49 1
    31   15   16 1
    32   15   50 1
    33   16   17 1
    34   16   51 1
    35   16   52 1
    36   17   18 1
    37   17   53 1
    38   17   54 1
    39   18   19 1
    40   18   55 1
    41   18   56 1
    42   19   20 1
    43   19   57 1
    44   19   58 1
    45   20   21 1
    46   20   59 1
    47   20   60 1
    48   21   22 1
    49   21   61 1
    50   21   62 1
    51   22   23 1
    52   22   63 1
    53   22   64 1
    54   23   24 1
    55   23   65 1
    56   24   33 ar
    57   24   25 ar
    58   25   30 ar
    59   25   26 ar
    60   26   27 ar
    61   26   66 1
    62   27   28 ar
    63   27   67 1
    64   28   29 ar
    65   28   68 1
    66   29   30 ar
    67   29   69 1
    68   30   31 ar
    69   31   32 ar
    70   31   79 1
    71   32   37 1
    72   32   33 ar
    73   33   34 1
    74   34   35 1
    75   34   70 1
    76   34   71 1
    77   35   36 1
    78   35   72 1
    79   35   73 1
    80   36   37 1
    81   36   74 1
    82   36   75 1
    83   37   76 1
    84   37   77 1
@<TRIPOS>MOLECULE
ZINC14947254
   85    90     0     0     0
SMALL
USER_CHARGES
N,N'-bis(1,2,3,4-tetrahydroacridin-9-yl)nonane-1,9-diamine
@<TRIPOS>ATOM
      1 C1         -0.7553    7.2078   -3.4311 C.ar      1 <0>        -0.0988
      2 C2         -0.6596    7.8712   -2.2102 C.ar      1 <0>        -0.0306
      3 C3         -0.7726    7.1961   -1.0336 C.ar      1 <0>        -0.1490
      4 C4         -0.9903    5.8074   -1.0439 C.ar      1 <0>         0.1648
      5 C5         -1.0887    5.1372   -2.2866 C.ar      1 <0>        -0.1244
      6 C6         -0.9664    5.8625   -3.4795 C.ar      1 <0>        -0.0717
      7 C7         -1.3107    3.7421   -2.2865 C.ar      1 <0>         0.2763
      8 C8         -1.4223    3.0886   -1.0629 C.ar      1 <0>        -0.1190
      9 C9         -1.3103    3.8105    0.1124 C.ar      1 <0>         0.2585
     10 C10        -1.4069    3.1550    1.4680 C.3       1 <0>        -0.1200
     11 C11        -2.0650    1.7821    1.3559 C.3       1 <0>        -0.1223
     12 C12        -1.3364    0.9824    0.2696 C.3       1 <0>        -0.1330
     13 C13        -1.6649    1.6027   -1.0869 C.3       1 <0>        -0.0668
     14 N1         -1.4154    3.0403   -3.4777 N.pl3     1 <0>        -0.6445
     15 C14        -2.7827    3.1085   -4.0104 C.3       1 <0>         0.0613
     16 C15        -2.8885    2.2286   -5.2576 C.3       1 <0>        -0.1208
     17 C16        -4.3126    2.2995   -5.8125 C.3       1 <0>        -0.1192
     18 C17        -4.4185    1.4196   -7.0596 C.3       1 <0>        -0.1202
     19 C18        -5.8425    1.4906   -7.6145 C.3       1 <0>        -0.1209
     20 C19        -5.9484    0.6107   -8.8616 C.3       1 <0>        -0.1203
     21 C20        -7.3725    0.6817   -9.4165 C.3       1 <0>        -0.1189
     22 C21        -7.4783   -0.1983  -10.6637 C.3       1 <0>        -0.1226
     23 C22        -8.9024   -0.1273  -11.2185 C.3       1 <0>         0.0596
     24 N2         -9.0041   -0.9721  -12.4160 N.pl3     1 <0>        -0.6457
     25 C23       -10.2630   -0.8734  -12.9883 C.ar      1 <0>         0.2770
     26 C24       -10.5763    0.1871  -13.8673 C.ar      1 <0>        -0.1247
     27 C25        -9.6337    1.1691  -14.2003 C.ar      1 <0>        -0.0716
     28 C26        -9.9784    2.1703  -15.0580 C.ar      1 <0>        -0.0988
     29 C27       -11.2552    2.2269  -15.6115 C.ar      1 <0>        -0.0304
     30 C28       -12.1925    1.2863  -15.3125 C.ar      1 <0>        -0.1491
     31 C29       -11.8732    0.2381  -14.4319 C.ar      1 <0>         0.1650
     32 C30       -12.4980   -1.6940  -13.2900 C.ar      1 <0>         0.2577
     33 C31       -11.2493   -1.8136  -12.7057 C.ar      1 <0>        -0.1177
     34 C32       -10.8936   -2.9340  -11.7646 C.3       1 <0>        -0.0655
     35 C33       -12.1558   -3.6087  -11.2313 C.3       1 <0>        -0.1331
     36 C34       -13.0500   -3.9688  -12.4234 C.3       1 <0>        -0.1231
     37 C35       -13.6091   -2.6773  -13.0153 C.3       1 <0>        -0.1194
     38 H1         -0.6613    7.7665   -4.3506 H         1 <0>         0.1538
     39 H2         -0.4928    8.9382   -2.1969 H         1 <0>         0.1565
     40 H3         -0.6956    7.7256   -0.0955 H         1 <0>         0.1563
     41 H4         -1.0384    5.3580   -4.4317 H         1 <0>         0.1492
     42 H5         -0.4059    3.0401    1.8838 H         1 <0>         0.1235
     43 H6         -2.0004    3.7851    2.1304 H         1 <0>         0.1117
     44 H7         -3.1139    1.8998    1.0837 H         1 <0>         0.0793
     45 H8         -1.9894    1.2594    2.3094 H         1 <0>         0.0965
     46 H9         -1.6715   -0.0546    0.2900 H         1 <0>         0.0916
     47 H10        -0.2609    1.0243    0.4418 H         1 <0>         0.0761
     48 H11        -1.0353    1.1481   -1.8518 H         1 <0>         0.1073
     49 H12        -2.7116    1.4133   -1.3247 H         1 <0>         0.0928
     50 H13        -0.7464    3.3753   -4.1547 H         1 <0>         0.3759
     51 H14        -3.4848    2.7547   -3.2555 H         1 <0>         0.0885
     52 H15        -3.0196    4.1397   -4.2721 H         1 <0>         0.0543
     53 H16        -2.1864    2.5823   -6.0125 H         1 <0>         0.0704
     54 H17        -2.6515    1.1973   -4.9959 H         1 <0>         0.0818
     55 H18        -5.0147    1.9457   -5.0575 H         1 <0>         0.0658
     56 H19        -4.5496    3.3308   -6.0742 H         1 <0>         0.0632
     57 H20        -3.7163    1.7734   -7.8146 H         1 <0>         0.0638
     58 H21        -4.1815    0.3884   -6.7979 H         1 <0>         0.0658
     59 H22        -6.5447    1.1368   -6.8595 H         1 <0>         0.0627
     60 H23        -6.0795    2.5218   -7.8762 H         1 <0>         0.0612
     61 H24        -5.2463    0.9645   -9.6166 H         1 <0>         0.0637
     62 H25        -5.7114   -0.4206   -8.5999 H         1 <0>         0.0659
     63 H26        -8.0746    0.3279   -8.6616 H         1 <0>         0.0666
     64 H27        -7.6095    1.7129   -9.6782 H         1 <0>         0.0633
     65 H28        -6.7762    0.1555  -11.4186 H         1 <0>         0.0699
     66 H29        -7.2414   -1.2295  -10.4020 H         1 <0>         0.0826
     67 H30        -9.6046   -0.4811  -10.4636 H         1 <0>         0.0906
     68 H31        -9.1394    0.9039  -11.4803 H         1 <0>         0.0530
     69 H32        -8.2841   -0.7407  -13.0839 H         1 <0>         0.3761
     70 H33        -8.6408    1.1347  -13.7768 H         1 <0>         0.1492
     71 H34        -9.2530    2.9292  -15.3113 H         1 <0>         0.1537
     72 H35       -11.5056    3.0302  -16.2886 H         1 <0>         0.1565
     73 H36       -13.1780    1.3448  -15.7505 H         1 <0>         0.1563
     74 H37       -10.2891   -3.6702  -12.2945 H         1 <0>         0.1007
     75 H38       -10.3204   -2.5329  -10.9287 H         1 <0>         0.0990
     76 H39       -11.8865   -4.5140  -10.6873 H         1 <0>         0.0919
     77 H40       -12.6852   -2.9251  -10.5675 H         1 <0>         0.0735
     78 H41       -12.4623   -4.4929  -13.1771 H         1 <0>         0.0815
     79 H42       -13.8682   -4.6063  -12.0883 H         1 <0>         0.0965
     80 H43       -14.1270   -2.9038  -13.9472 H         1 <0>         0.1123
     81 H44       -14.3137   -2.2349  -12.3111 H         1 <0>         0.1224
     82 N3         -1.0995    5.1585    0.1660 N.ar      1 <0>        -0.5152
     83 H45        -1.0265    5.6606    1.0587 H         1 <0>         0.4695
     84 N4        -12.8472   -0.6949  -14.1528 N.ar      1 <0>        -0.5148
     85 H46       -13.7837   -0.6422  -14.5704 H         1 <0>         0.4695
@<TRIPOS>BOND
     1    1    6 ar
     2    1    2 ar
     3    1   38 1
     4    2    3 ar
     5    2   39 1
     6    3    4 ar
     7    3   40 1
     8    4    5 ar
     9    4   82 ar
    10    5    6 ar
    11    5    7 ar
    12    6   41 1
    13    7    8 ar
    14    7   14 1
    15    8   13 1
    16    8    9 ar
    17    9   10 1
    18    9   82 ar
    19   10   11 1
    20   10   42 1
    21   10   43 1
    22   11   12 1
    23   11   44 1
    24   11   45 1
    25   12   13 1
    26   12   46 1
    27   12   47 1
    28   13   48 1
    29   13   49 1
    30   14   15 1
    31   14   50 1
    32   15   16 1
    33   15   51 1
    34   15   52 1
    35   16   17 1
    36   16   53 1
    37   16   54 1
    38   17   18 1
    39   17   55 1
    40   17   56 1
    41   18   19 1
    42   18   57 1
    43   18   58 1
    44   19   20 1
    45   19   59 1
    46   19   60 1
    47   20   21 1
    48   20   61 1
    49   20   62 1
    50   21   22 1
    51   21   63 1
    52   21   64 1
    53   22   23 1
    54   22   65 1
    55   22   66 1
    56   23   24 1
    57   23   67 1
    58   23   68 1
    59   24   25 1
    60   24   69 1
    61   25   33 ar
    62   25   26 ar
    63   26   31 ar
    64   26   27 ar
    65   27   28 ar
    66   27   70 1
    67   28   29 ar
    68   28   71 1
    69   29   30 ar
    70   29   72 1
    71   30   31 ar
    72   30   73 1
    73   31   84 ar
    74   32   37 1
    75   32   33 ar
    76   32   84 ar
    77   33   34 1
    78   34   35 1
    79   34   74 1
    80   34   75 1
    81   35   36 1
    82   35   76 1
    83   35   77 1
    84   36   37 1
    85   36   78 1
    86   36   79 1
    87   37   80 1
    88   37   81 1
    89   82   83 1
    90   84   85 1
@<TRIPOS>MOLECULE
ZINC00004413
   41    41     0     0     0
SMALL
USER_CHARGES

@<TRIPOS>ATOM
      1 C1          4.4626    0.9331   -2.8658 C.3       1 <0>        -0.1716
      2 C2          3.0922    1.3370   -2.3184 C.3       1 <0>         0.1225
      3 N1          2.1977    0.1769   -2.3368 N.am      1 <0>        -0.5889
      4 C3          2.1273   -0.7122   -1.1746 C.3       1 <0>         0.0754
      5 C4          1.4396   -0.0723   -3.4229 C.2       1 <0>         0.6477
      6 O1          1.4980    0.6652   -4.3869 O.2       1 <0>        -0.5535
      7 O2          0.6173   -1.1388   -3.4398 O.3       1 <0>        -0.3075
      8 C5         -0.2031   -1.2952   -4.5123 C.ar      1 <0>         0.1261
      9 C6         -1.5478   -0.9685   -4.4120 C.ar      1 <0>        -0.0937
     10 C7         -2.3794   -1.1283   -5.5033 C.ar      1 <0>        -0.0860
     11 C8         -1.8728   -1.6139   -6.6949 C.ar      1 <0>        -0.1221
     12 C9         -0.5334   -1.9405   -6.7972 C.ar      1 <0>        -0.1238
     13 C10         0.3039   -1.7762   -5.7104 C.ar      1 <0>        -0.0901
     14 C11         0.0152   -2.4704   -8.0969 C.3       1 <0>         0.0788
     15 H1          0.9527   -2.9938   -7.9091 H         1 <0>         0.1439
     16 C12         0.2648   -1.3060   -9.0576 C.3       1 <0>        -0.1799
     17 N2         -0.9531   -3.3994   -8.6947 N.4       1 <0>        -0.3859
     18 C13        -0.4184   -3.9159   -9.9616 C.3       1 <0>        -0.0520
     19 C14        -1.1928   -4.5173   -7.7723 C.3       1 <0>        -0.0508
     20 H2          4.8824    0.1408   -2.2460 H         1 <0>         0.0603
     21 H3          4.3537    0.5745   -3.8894 H         1 <0>         0.0581
     22 H4          5.1281    1.7962   -2.8522 H         1 <0>         0.0766
     23 H5          3.2011    1.6957   -1.2949 H         1 <0>         0.0928
     24 H6          2.6725    2.1293   -2.9383 H         1 <0>         0.0905
     25 H7          1.3554   -0.3572   -0.4918 H         1 <0>         0.0654
     26 H8          1.8843   -1.7224   -1.5042 H         1 <0>         0.0784
     27 H9          3.0898   -0.7185   -0.6631 H         1 <0>         0.0821
     28 H10        -1.9440   -0.5899   -3.4814 H         1 <0>         0.1446
     29 H11        -3.4262   -0.8742   -5.4257 H         1 <0>         0.1465
     30 H12        -2.5247   -1.7385   -7.5469 H         1 <0>         0.1259
     31 H13         1.3512   -2.0270   -5.7923 H         1 <0>         0.1385
     32 H14         0.9833   -0.6167   -8.6140 H         1 <0>         0.1084
     33 H15         0.6616   -1.6892   -9.9977 H         1 <0>         0.0875
     34 H16        -0.6727   -0.7825   -9.2453 H         1 <0>         0.0834
     35 H17        -0.2406   -3.0863  -10.6460 H         1 <0>         0.1268
     36 H18         0.5191   -4.4393   -9.7738 H         1 <0>         0.1237
     37 H19        -1.1369   -4.6052  -10.4052 H         1 <0>         0.1270
     38 H20        -1.5895   -4.1341   -6.8322 H         1 <0>         0.1235
     39 H21        -1.9113   -5.2066   -8.2158 H         1 <0>         0.1263
     40 H22        -0.2553   -5.0408   -7.5845 H         1 <0>         0.1229
     41 H23        -1.8209   -2.9148   -8.8685 H         1 <0>         0.4225
@<TRIPOS>BOND
     1    1    2 1
     2    1   20 1
     3    1   21 1
     4    1   22 1
     5    2    3 1
     6    2   23 1
     7    2   24 1
     8    3    4 1
     9    3    5 am
    10    4   25 1
    11    4   26 1
    12    4   27 1
    13    5    6 2
    14    5    7 1
    15    7    8 1
    16    8   13 ar
    17    8    9 ar
    18    9   10 ar
    19    9   28 1
    20   10   11 ar
    21   10   29 1
    22   11   12 ar
    23   11   30 1
    24   12   13 ar
    25   12   14 1
    26   13   31 1
    27   14   15 1
    28   14   16 1
    29   14   17 1
    30   16   32 1
    31   16   33 1
    32   16   34 1
    33   17   18 1
    34   17   19 1
    35   17   41 1
    36   18   35 1
    37   18   36 1
    38   18   37 1
    39   19   38 1
    40   19   39 1
    41   19   40 1
@<TRIPOS>MOLECULE
ZINC00491073
   43    46     0     0     0
SMALL
USER_CHARGES

@<TRIPOS>ATOM
      1 C1         -0.0178    1.4648    0.0101 C.3       1 <0>        -0.0508
      2 N1          0.0021   -0.0041    0.0020 N.4       1 <0>        -0.3695
      3 C2         -1.3487   -0.4766   -0.1051 C.3       1 <0>        -0.0209
      4 C3         -1.4957   -1.8208   -0.7552 C.3       1 <0>        -0.1240
      5 C4         -1.1986   -2.9607    0.1979 C.3       1 <0>        -0.0106
      6 C5         -2.0769   -2.9074    1.4042 C.2       1 <0>        -0.1408
      7 C6         -2.9213   -3.8188    1.7532 C.2       1 <0>        -0.1505
      8 C7         -3.1380   -5.0863    0.9901 C.3       1 <0>         0.1315
      9 H1         -4.2051   -5.3069    0.9636 H         1 <0>         0.0752
     10 C8         -2.6198   -4.9844   -0.4299 C.3       1 <0>        -0.1186
     11 C9         -1.2869   -4.2969   -0.5425 C.3       1 <0>         0.0975
     12 H2         -1.0674   -4.1273   -1.5966 H         1 <0>         0.0880
     13 O1         -0.2232   -5.0787    0.0155 O.3       1 <0>        -0.2581
     14 C10         0.7233   -4.2458    0.5013 C.ar      1 <0>         0.0952
     15 C11         0.2527   -2.9329    0.6428 C.ar      1 <0>        -0.1178
     16 C12         1.0216   -1.9269    1.1409 C.ar      1 <0>        -0.1302
     17 C13         2.3121   -2.2785    1.5668 C.ar      1 <0>        -0.0934
     18 C14         2.7995   -3.5564    1.4290 C.ar      1 <0>        -0.1641
     19 C15         2.0296   -4.5760    0.8827 C.ar      1 <0>         0.1377
     20 O2          2.5209   -5.8345    0.7267 O.3       1 <0>        -0.2954
     21 C16         3.8668   -6.0626    1.1493 C.3       1 <0>         0.0215
     22 C17         0.7068   -0.4603    1.1832 C.3       1 <0>         0.0520
     23 O3         -2.4591   -6.1527    1.6564 O.3       1 <0>        -0.5466
     24 H3          1.0047    1.8421    0.0024 H         1 <0>         0.1273
     25 H4         -0.5450    1.8259   -0.8730 H         1 <0>         0.1278
     26 H5         -0.5280    1.8163    0.9069 H         1 <0>         0.1247
     27 H6         -1.7753   -0.5300    0.8966 H         1 <0>         0.1288
     28 H7         -1.9228    0.2491   -0.6812 H         1 <0>         0.1383
     29 H8         -2.5166   -1.9252   -1.1226 H         1 <0>         0.1215
     30 H9         -0.8106   -1.8805   -1.6009 H         1 <0>         0.0938
     31 H10        -1.9990   -2.0352    2.0363 H         1 <0>         0.1089
     32 H11        -3.5045   -3.6570    2.6477 H         1 <0>         0.1222
     33 H12        -2.5282   -5.9902   -0.8398 H         1 <0>         0.1019
     34 H13        -3.3468   -4.4337   -1.0268 H         1 <0>         0.1027
     35 H14         2.9401   -1.5233    2.0159 H         1 <0>         0.1374
     36 H15         3.8066   -3.7734    1.7533 H         1 <0>         0.1450
     37 H16         4.5389   -5.4141    0.5873 H         1 <0>         0.0614
     38 H17         3.9556   -5.8433    2.2133 H         1 <0>         0.0618
     39 H18         4.1324   -7.1043    0.9696 H         1 <0>         0.1116
     40 H19         1.6391    0.0971    1.2738 H         1 <0>         0.1432
     41 H20         0.0917   -0.2576    2.0600 H         1 <0>         0.1319
     42 H21        -2.7602   -6.3053    2.5625 H         1 <0>         0.3809
     43 H22         0.5116   -0.3113   -0.8129 H         1 <0>         0.4218
@<TRIPOS>BOND
     1    1    2 1
     2    1   24 1
     3    1   25 1
     4    1   26 1
     5    2   22 1
     6    2    3 1
     7    2   43 1
     8    3    4 1
     9    3   27 1
    10    3   28 1
    11    4    5 1
    12    4   29 1
    13    4   30 1
    14    5   11 1
    15    5   15 1
    16    5    6 1
    17    6    7 2
    18    6   31 1
    19    7    8 1
    20    7   32 1
    21    8    9 1
    22    8   10 1
    23    8   23 1
    24   10   11 1
    25   10   33 1
    26   10   34 1
    27   11   12 1
    28   11   13 1
    29   13   14 1
    30   14   19 ar
    31   14   15 ar
    32   15   16 ar
    33   16   17 ar
    34   16   22 1
    35   17   18 ar
    36   17   35 1
    37   18   19 ar
    38   18   36 1
    39   19   20 1
    40   20   21 1
    41   21   37 1
    42   21   38 1
    43   21   39 1
    44   22   40 1
    45   22   41 1
    46   23   42 1
@<TRIPOS>MOLECULE
ZINC03641317
   76    81     0     0     0
SMALL
USER_CHARGES
N,N'-bis(1,2,3,4-tetrahydroacridin-9-yl)hexane-1,6-diamine
@<TRIPOS>ATOM
      1 C1         -0.7886    7.2681   -3.4742 C.ar      1 <0>        -0.0975
      2 C2         -0.6943    7.9404   -2.2580 C.ar      1 <0>        -0.0302
      3 C3         -0.8019    7.2728   -1.0766 C.ar      1 <0>        -0.1483
      4 C4         -1.0125    5.8829   -1.0771 C.ar      1 <0>         0.1646
      5 C5         -1.1097    5.2037   -2.3150 C.ar      1 <0>        -0.1239
      6 C6         -0.9930    5.9215   -3.5130 C.ar      1 <0>        -0.0730
      7 C7         -1.3246    3.8076   -2.3050 C.ar      1 <0>         0.2747
      8 C8         -1.4308    3.1620   -1.0767 C.ar      1 <0>        -0.1189
      9 C9         -1.3206    3.8925    0.0934 C.ar      1 <0>         0.2589
     10 C10        -1.4116    3.2457    1.4536 C.3       1 <0>        -0.1206
     11 C11        -2.0629    1.8688    1.3521 C.3       1 <0>        -0.1223
     12 C12        -1.3321    1.0654    0.2700 C.3       1 <0>        -0.1333
     13 C13        -1.6659    1.6747   -1.0901 C.3       1 <0>        -0.0660
     14 N1         -1.4277    3.0972   -3.4911 N.pl3     1 <0>        -0.6448
     15 C14        -2.7962    3.1548   -4.0220 C.3       1 <0>         0.0607
     16 C15        -2.8997    2.2658   -5.2629 C.3       1 <0>        -0.1208
     17 C16        -4.3251    2.3258   -5.8158 C.3       1 <0>        -0.1185
     18 C17        -4.4286    1.4368   -7.0567 C.3       1 <0>        -0.1181
     19 C18        -5.8539    1.4968   -7.6096 C.3       1 <0>        -0.1226
     20 C19        -5.9574    0.6078   -8.8506 C.3       1 <0>         0.0590
     21 N2         -7.3259    0.6654   -9.3814 N.pl3     1 <0>        -0.6458
     22 C20        -7.4751   -0.1872  -10.4645 C.ar      1 <0>         0.2751
     23 C21        -7.7454   -1.5603  -10.2715 C.ar      1 <0>        -0.1242
     24 C22        -7.8809   -2.1101   -8.9896 C.ar      1 <0>        -0.0729
     25 C23        -8.1483   -3.4391   -8.8517 C.ar      1 <0>        -0.0977
     26 C24        -8.2934   -4.2571   -9.9695 C.ar      1 <0>        -0.0303
     27 C25        -8.1725   -3.7536  -11.2284 C.ar      1 <0>        -0.1482
     28 C26        -7.8974   -2.3871  -11.4102 C.ar      1 <0>         0.1648
     29 C27        -7.5101   -0.5823  -12.8314 C.ar      1 <0>         0.2583
     30 C28        -7.3562    0.2884  -11.7669 C.ar      1 <0>        -0.1173
     31 C29        -7.0659    1.7548  -11.9484 C.3       1 <0>        -0.0649
     32 C30        -6.5505    2.0296  -13.3596 C.3       1 <0>        -0.1333
     33 C31        -7.5212    1.3910  -14.3599 C.3       1 <0>        -0.1232
     34 C32        -7.3843   -0.1265  -14.2643 C.3       1 <0>        -0.1200
     35 H1         -0.6991    7.8209   -4.3976 H         1 <0>         0.1541
     36 H2         -0.5329    9.0082   -2.2523 H         1 <0>         0.1570
     37 H3         -0.7260    7.8091   -0.1423 H         1 <0>         0.1568
     38 H4         -1.0641    5.4101   -4.4616 H         1 <0>         0.1488
     39 H5         -0.4093    3.1387    1.8685 H         1 <0>         0.1239
     40 H6         -2.0071    3.8774    2.1128 H         1 <0>         0.1123
     41 H7         -3.1128    1.9794    1.0808 H         1 <0>         0.0793
     42 H8         -1.9830    1.3531    2.3090 H         1 <0>         0.0968
     43 H9         -1.6619    0.0268    0.2981 H         1 <0>         0.0914
     44 H10        -0.2565    1.1138    0.4401 H         1 <0>         0.0763
     45 H11        -1.0354    1.2181   -1.8530 H         1 <0>         0.1067
     46 H12        -2.7121    1.4784   -1.3248 H         1 <0>         0.0920
     47 H13        -0.7616    3.4308   -4.1716 H         1 <0>         0.3758
     48 H14        -3.4953    2.8026   -3.2634 H         1 <0>         0.0888
     49 H15        -3.0389    4.1830   -4.2903 H         1 <0>         0.0552
     50 H16        -2.2007    2.6179   -6.0215 H         1 <0>         0.0713
     51 H17        -2.6571    1.2376   -4.9945 H         1 <0>         0.0816
     52 H18        -5.0241    1.9736   -5.0573 H         1 <0>         0.0680
     53 H19        -4.5677    3.3540   -6.0842 H         1 <0>         0.0676
     54 H20        -3.7295    1.7890   -7.8153 H         1 <0>         0.0690
     55 H21        -4.1859    0.4086   -6.7884 H         1 <0>         0.0673
     56 H22        -6.5530    1.1447   -6.8511 H         1 <0>         0.0705
     57 H23        -6.0966    2.5250   -7.8780 H         1 <0>         0.0825
     58 H24        -5.2583    0.9600   -9.6091 H         1 <0>         0.0910
     59 H25        -5.7148   -0.4204   -8.5822 H         1 <0>         0.0538
     60 H26        -8.0020    0.4576   -8.6618 H         1 <0>         0.3759
     61 H27        -7.7703   -1.4849   -8.1160 H         1 <0>         0.1486
     62 H28        -8.2487   -3.8633   -7.8636 H         1 <0>         0.1539
     63 H29        -8.5047   -5.3077   -9.8354 H         1 <0>         0.1570
     64 H30        -8.2880   -4.4017  -12.0846 H         1 <0>         0.1568
     65 H31        -7.9796    2.3253  -11.7820 H         1 <0>         0.1004
     66 H32        -6.3122    2.0642  -11.2244 H         1 <0>         0.0982
     67 H33        -6.5020    3.1051  -13.5301 H         1 <0>         0.0918
     68 H34        -5.5587    1.5936  -13.4799 H         1 <0>         0.0738
     69 H35        -8.5428    1.6828  -14.1163 H         1 <0>         0.0815
     70 H36        -7.2768    1.7212  -15.3695 H         1 <0>         0.0970
     71 H37        -8.1665   -0.5962  -14.8607 H         1 <0>         0.1128
     72 H38        -6.4098   -0.4244  -14.6512 H         1 <0>         0.1230
     73 N3         -1.1165    5.2418    0.1375 N.ar      1 <0>        -0.5142
     74 H39        -1.0446    5.7502    1.0266 H         1 <0>         0.4700
     75 N4         -7.7818   -1.9138  -12.6985 N.ar      1 <0>        -0.5138
     76 H40        -7.8938   -2.5281  -13.5135 H         1 <0>         0.4701
@<TRIPOS>BOND
     1    1    6 ar
     2    1    2 ar
     3    1   35 1
     4    2    3 ar
     5    2   36 1
     6    3    4 ar
     7    3   37 1
     8    4    5 ar
     9    4   73 ar
    10    5    6 ar
    11    5    7 ar
    12    6   38 1
    13    7    8 ar
    14    7   14 1
    15    8   13 1
    16    8    9 ar
    17    9   10 1
    18    9   73 ar
    19   10   11 1
    20   10   39 1
    21   10   40 1
    22   11   12 1
    23   11   41 1
    24   11   42 1
    25   12   13 1
    26   12   43 1
    27   12   44 1
    28   13   45 1
    29   13   46 1
    30   14   15 1
    31   14   47 1
    32   15   16 1
    33   15   48 1
    34   15   49 1
    35   16   17 1
    36   16   50 1
    37   16   51 1
    38   17   18 1
    39   17   52 1
    40   17   53 1
    41   18   19 1
    42   18   54 1
    43   18   55 1
    44   19   20 1
    45   19   56 1
    46   19   57 1
    47   20   21 1
    48   20   58 1
    49   20   59 1
    50   21   22 1
    51   21   60 1
    52   22   30 ar
    53   22   23 ar
    54   23   28 ar
    55   23   24 ar
    56   24   25 ar
    57   24   61 1
    58   25   26 ar
    59   25   62 1
    60   26   27 ar
    61   26   63 1
    62   27   28 ar
    63   27   64 1
    64   28   75 ar
    65   29   34 1
    66   29   30 ar
    67   29   75 ar
    68   30   31 1
    69   31   32 1
    70   31   65 1
    71   31   66 1
    72   32   33 1
    73   32   67 1
    74   32   68 1
    75   33   34 1
    76   33   69 1
    77   33   70 1
    78   34   71 1
    79   34   72 1
    80   73   74 1
    81   75   76 1
@<TRIPOS>MOLECULE
ZINC00003275
   34    37     0     0     0
SMALL
USER_CHARGES
BLAHamine
@<TRIPOS>ATOM
      1 C1          4.8173    0.0283   -0.0728 C.ar      1 <0>        -0.0653
      2 C2          4.8328    1.3639    0.2876 C.ar      1 <0>        -0.1171
      3 C3          3.6592    2.0916    0.2990 C.ar      1 <0>        -0.0814
      4 C4          2.4625    1.4739   -0.0519 C.ar      1 <0>        -0.1240
      5 C5          2.4528    0.1337   -0.4312 C.ar      1 <0>        -0.0236
      6 C6          3.6309   -0.5856   -0.4323 C.ar      1 <0>        -0.1149
      7 C7          1.1624   -0.5241   -0.8409 C.3       1 <0>        -0.0921
      8 C8          0.0021   -0.0041    0.0020 C.3       1 <0>        -0.0633
      9 C9         -0.0183    1.5006    0.0103 C.ar      1 <0>        -0.2171
     10 C10         1.1815    2.2222    0.0027 C.ar      1 <0>         0.3256
     11 C11         0.0567    4.2526    0.0556 C.ar      1 <0>         0.1826
     12 C12         0.0854    5.6584    0.0870 C.ar      1 <0>        -0.1519
     13 C13        -1.0822    6.3581    0.1031 C.ar      1 <0>        -0.0306
     14 C14        -2.3116    5.7038    0.0899 C.ar      1 <0>        -0.1132
     15 C15        -2.3779    4.3429    0.0619 C.ar      1 <0>        -0.0574
     16 C16        -1.1953    3.5912    0.0476 C.ar      1 <0>        -0.1317
     17 C17        -1.2248    2.1752    0.0312 C.ar      1 <0>         0.3671
     18 N1         -2.4284    1.4859    0.0324 N.pl3     1 <0>        -0.7981
     19 H1          5.7366   -0.5385   -0.0730 H         1 <0>         0.1418
     20 H2          5.7640    1.8382    0.5600 H         1 <0>         0.1420
     21 H3          3.6699    3.1345    0.5795 H         1 <0>         0.1268
     22 H4          3.6265   -1.6281   -0.7144 H         1 <0>         0.1434
     23 H5          1.2499   -1.6021   -0.7055 H         1 <0>         0.1027
     24 H6          0.9675   -0.3094   -1.8917 H         1 <0>         0.0941
     25 H7          0.1100   -0.3671    1.0241 H         1 <0>         0.0956
     26 H8         -0.9361   -0.3734   -0.4120 H         1 <0>         0.0901
     27 H9          1.0305    6.1810    0.0985 H         1 <0>         0.1536
     28 H10        -1.0548    7.4375    0.1262 H         1 <0>         0.1532
     29 H11        -3.2236    6.2821    0.1016 H         1 <0>         0.1512
     30 H12        -3.3368    3.8462    0.0512 H         1 <0>         0.1471
     31 H13        -2.4320    0.5160    0.0184 H         1 <0>         0.4252
     32 H14        -3.2667    1.9738    0.0472 H         1 <0>         0.4218
     33 N2          1.2596    3.5819    0.0336 N.ar      1 <0>        -0.5444
     34 H15         2.1595    4.0762    0.0401 H         1 <0>         0.4625
@<TRIPOS>BOND
     1    1    6 ar
     2    1    2 ar
     3    1   19 1
     4    2    3 ar
     5    2   20 1
     6    3    4 ar
     7    3   21 1
     8    4   10 1
     9    4    5 ar
    10    5    6 ar
    11    5    7 1
    12    6   22 1
    13    7    8 1
    14    7   23 1
    15    7   24 1
    16    8    9 1
    17    8   25 1
    18    8   26 1
    19    9   17 ar
    20    9   10 ar
    21   10   33 ar
    22   11   16 ar
    23   11   12 ar
    24   11   33 ar
    25   12   13 ar
    26   12   27 1
    27   13   14 ar
    28   13   28 1
    29   14   15 ar
    30   14   29 1
    31   15   16 ar
    32   15   30 1
    33   16   17 ar
    34   17   18 1
    35   18   31 1
    36   18   32 1
    37   33   34 1
@<TRIPOS>MOLECULE
ZINC33971762
   41    43     0     0     0
SMALL
USER_CHARGES

@<TRIPOS>ATOM
      1 C1         -0.1882    1.7290    0.1955 C.3       1 <0>        -0.1309
      2 C2         -0.0702    0.2073    0.0878 C.3       1 <0>        -0.0259
      3 C3          0.7161   -0.2302   -1.1676 C.3       1 <0>        -0.1094
      4 C4          2.1268   -0.5350   -0.6041 C.3       1 <0>         0.0405
      5 N1          1.8390   -1.1603    0.7115 N.3       1 <0>        -0.5322
      6 C5          0.6980   -0.4088    1.2788 C.3       1 <0>         0.2994
      7 H1          1.0394    0.3565    1.9759 H         1 <0>         0.0776
      8 N2         -0.2494   -1.3390    1.8987 N.pl3     1 <0>        -0.6082
      9 C6         -1.4512   -1.3519    1.1851 C.ar      1 <0>         0.2180
     10 C7         -1.4185   -0.4740    0.1132 C.ar      1 <0>        -0.1472
     11 C8         -2.5141   -0.3423   -0.7184 C.ar      1 <0>        -0.0389
     12 C9         -3.6592   -1.0890   -0.4850 C.ar      1 <0>         0.0429
     13 C10        -3.7001   -1.9683    0.5867 C.ar      1 <0>        -0.0563
     14 C11        -2.6072   -2.1000    1.4164 C.ar      1 <0>        -0.1688
     15 O1         -4.7376   -0.9593   -1.3035 O.3       1 <0>        -0.2261
     16 C12        -4.6383   -1.4352   -2.5634 C.2       1 <0>         0.4996
     17 N3         -3.5806   -2.0956   -2.9265 N.2       1 <0>        -0.6269
     18 C13        -3.4728   -2.6119   -4.2933 C.3       1 <0>         0.0245
     19 O2         -5.6388   -1.2245   -3.4457 O.3       1 <0>        -0.4978
     20 C14         0.0235   -2.1399    3.0947 C.3       1 <0>         0.1095
     21 C15         3.0095   -1.0875    1.5963 C.3       1 <0>         0.0155
     22 H2          0.8083    2.1700    0.2180 H         1 <0>         0.0606
     23 H3         -0.7361    2.1127   -0.6652 H         1 <0>         0.0678
     24 H4         -0.7211    1.9882    1.1104 H         1 <0>         0.0624
     25 H5          0.2747   -1.1248   -1.6069 H         1 <0>         0.0841
     26 H6          0.7587    0.5784   -1.8973 H         1 <0>         0.0791
     27 H7          2.6581   -1.2312   -1.2530 H         1 <0>         0.0875
     28 H8          2.6971    0.3850   -0.4763 H         1 <0>         0.0502
     29 H9         -2.4788    0.3438   -1.5516 H         1 <0>         0.1225
     30 H10        -4.5905   -2.5508    0.7720 H         1 <0>         0.1326
     31 H11        -2.6452   -2.7858    2.2498 H         1 <0>         0.1268
     32 H12        -4.2937   -3.3025   -4.4866 H         1 <0>         0.0494
     33 H13        -3.5212   -1.7831   -4.9996 H         1 <0>         0.0495
     34 H14        -2.5234   -3.1342   -4.4105 H         1 <0>         0.0898
     35 H15        -5.4773   -1.6022   -4.3211 H         1 <0>         0.4199
     36 H16        -0.2683   -1.5785    3.9823 H         1 <0>         0.0491
     37 H17        -0.5461   -3.0680    3.0482 H         1 <0>         0.0679
     38 H18         1.0881   -2.3690    3.1434 H         1 <0>         0.0697
     39 H19         3.2777   -0.0435    1.7587 H         1 <0>         0.0309
     40 H20         2.7720   -1.5546    2.5521 H         1 <0>         0.0681
     41 H21         3.8471   -1.6102    1.1345 H         1 <0>         0.0733
@<TRIPOS>BOND
     1    1    2 1
     2    1   22 1
     3    1   23 1
     4    1   24 1
     5    2    6 1
     6    2   10 1
     7    2    3 1
     8    3    4 1
     9    3   25 1
    10    3   26 1
    11    4    5 1
    12    4   27 1
    13    4   28 1
    14    5    6 1
    15    5   21 1
    16    6    7 1
    17    6    8 1
    18    8    9 1
    19    8   20 1
    20    9   14 ar
    21    9   10 ar
    22   10   11 ar
    23   11   12 ar
    24   11   29 1
    25   12   13 ar
    26   12   15 1
    27   13   14 ar
    28   13   30 1
    29   14   31 1
    30   15   16 1
    31   16   17 2
    32   16   19 1
    33   17   18 1
    34   18   32 1
    35   18   33 1
    36   18   34 1
    37   19   35 1
    38   20   36 1
    39   20   37 1
    40   20   38 1
    41   21   39 1
    42   21   40 1
    43   21   41 1
@<TRIPOS>MOLECULE
ZINC33971762
   42    44     0     0     0
SMALL
USER_CHARGES

@<TRIPOS>ATOM
      1 C1         -0.1882    1.7290    0.1955 C.3       1 <0>        -0.1392
      2 C2         -0.0702    0.2073    0.0878 C.3       1 <0>        -0.0229
      3 C3          0.7161   -0.2302   -1.1676 C.3       1 <0>        -0.1344
      4 C4          2.1268   -0.5350   -0.6041 C.3       1 <0>        -0.0013
      5 N1          1.8390   -1.1603    0.7115 N.4       1 <0>        -0.4135
      6 C5          0.6980   -0.4088    1.2788 C.3       1 <0>         0.2646
      7 H1          1.0394    0.3565    1.9759 H         1 <0>         0.1606
      8 N2         -0.2494   -1.3390    1.8987 N.pl3     1 <0>        -0.6268
      9 C6         -1.4512   -1.3519    1.1851 C.ar      1 <0>         0.1765
     10 C7         -1.4185   -0.4740    0.1132 C.ar      1 <0>        -0.1459
     11 C8         -2.5141   -0.3423   -0.7184 C.ar      1 <0>        -0.0416
     12 C9         -3.6592   -1.0890   -0.4850 C.ar      1 <0>         0.0843
     13 C10        -3.7001   -1.9683    0.5867 C.ar      1 <0>        -0.0559
     14 C11        -2.6072   -2.1000    1.4164 C.ar      1 <0>        -0.1358
     15 O1         -4.7376   -0.9593   -1.3035 O.3       1 <0>        -0.2266
     16 C12        -4.6383   -1.4352   -2.5634 C.2       1 <0>         0.5068
     17 N3         -3.5806   -2.0956   -2.9265 N.2       1 <0>        -0.6345
     18 C13        -3.4728   -2.6119   -4.2933 C.3       1 <0>         0.0224
     19 O2         -5.6388   -1.2245   -3.4457 O.3       1 <0>        -0.4909
     20 C14         0.0238   -2.1405    3.0942 C.3       1 <0>         0.0905
     21 C15         3.0087   -1.0454    1.5928 C.3       1 <0>        -0.0450
     22 H2          0.8083    2.1700    0.2180 H         1 <0>         0.0725
     23 H3         -0.7361    2.1127   -0.6652 H         1 <0>         0.0852
     24 H4         -0.7211    1.9882    1.1104 H         1 <0>         0.0759
     25 H5          0.2747   -1.1248   -1.6069 H         1 <0>         0.1057
     26 H6          0.7587    0.5784   -1.8973 H         1 <0>         0.1233
     27 H7          2.6581   -1.2312   -1.2530 H         1 <0>         0.1390
     28 H8          2.6971    0.3850   -0.4763 H         1 <0>         0.1379
     29 H9         -2.4788    0.3438   -1.5516 H         1 <0>         0.1344
     30 H10        -4.5905   -2.5508    0.7720 H         1 <0>         0.1460
     31 H11        -2.6452   -2.7858    2.2498 H         1 <0>         0.1374
     32 H12        -3.5212   -1.7831   -4.9996 H         1 <0>         0.0540
     33 H13        -2.5234   -3.1342   -4.4105 H         1 <0>         0.0911
     34 H14        -4.2937   -3.3025   -4.4866 H         1 <0>         0.0548
     35 H15        -5.4773   -1.6022   -4.3211 H         1 <0>         0.4255
     36 H16        -0.2674   -1.5795    3.9822 H         1 <0>         0.0730
     37 H17        -0.5461   -3.0685    3.0476 H         1 <0>         0.0899
     38 H18         1.0883   -2.3700    3.1423 H         1 <0>         0.0704
     39 H19         3.2642    0.0063    1.7221 H         1 <0>         0.1241
     40 H20         2.7772   -1.4850    2.5630 H         1 <0>         0.1183
     41 H21         3.8525   -1.5722    1.1472 H         1 <0>         0.1259
     42 H22         1.5894   -2.1301    0.5881 H         1 <0>         0.4242
@<TRIPOS>BOND
     1    1    2 1
     2    1   22 1
     3    1   23 1
     4    1   24 1
     5    2    6 1
     6    2   10 1
     7    2    3 1
     8    3    4 1
     9    3   25 1
    10    3   26 1
    11    4    5 1
    12    4   27 1
    13    4   28 1
    14    5    6 1
    15    5   21 1
    16    5   42 1
    17    6    7 1
    18    6    8 1
    19    8    9 1
    20    8   20 1
    21    9   14 ar
    22    9   10 ar
    23   10   11 ar
    24   11   12 ar
    25   11   29 1
    26   12   13 ar
    27   12   15 1
    28   13   14 ar
    29   13   30 1
    30   14   31 1
    31   15   16 1
    32   16   17 2
    33   16   19 1
    34   17   18 1
    35   18   32 1
    36   18   33 1
    37   18   34 1
    38   19   35 1
    39   20   36 1
    40   20   37 1
    41   20   38 1
    42   21   39 1
    43   21   40 1
    44   21   41 1
