@<TRIPOS>MOLECULE
ZINC22010574
   54    56     0     0     0
SMALL
USER_CHARGES
[5-chloro-2-[2-[(2R)-4-[(4-fluorophenyl)methyl]-2-methyl-piperazin-1-yl]-2-oxo-ethoxy]phenyl]urea
@<TRIPOS>ATOM
      1 C1          6.3375   -1.6445   -0.7087 C.3       1 <0>        -0.1553
      2 C2          5.3974   -2.8260   -0.4613 C.3       1 <0>         0.1534
      3 H1          5.6505   -3.3194    0.4887 H         1 <0>         0.0848
      4 C3          5.4927   -3.8084   -1.6275 C.3       1 <0>         0.0438
      5 N1          4.4779   -4.8582   -1.4661 N.3       1 <0>        -0.5317
      6 C4          3.1204   -4.2987   -1.5117 C.3       1 <0>         0.0319
      7 C5          2.9282   -3.3366   -0.3345 C.3       1 <0>         0.1063
      8 N2          4.0119   -2.3425   -0.3619 N.am      1 <0>        -0.6097
      9 C6          3.7421   -1.0233   -0.3031 C.2       1 <0>         0.5227
     10 O1          4.6486   -0.2222   -0.2175 O.2       1 <0>        -0.5064
     11 C7          2.3140   -0.5437   -0.3437 C.3       1 <0>         0.0366
     12 O2          2.2883    0.8830   -0.2676 O.3       1 <0>        -0.2872
     13 C8          1.0669    1.4808   -0.2922 C.ar      1 <0>         0.1021
     14 C9         -0.0808    0.7108   -0.3873 C.ar      1 <0>        -0.1799
     15 C10        -1.3217    1.3197   -0.4180 C.ar      1 <0>        -0.0885
     16 C11        -1.4220    2.6978   -0.3432 C.ar      1 <0>        -0.0488
     17 C12        -0.2805    3.4729   -0.2481 C.ar      1 <0>        -0.0804
     18 C13         0.9675    2.8682   -0.2222 C.ar      1 <0>         0.1640
     19 N3          2.1259    3.6516   -0.1263 N.am      1 <0>        -0.6910
     20 C14         2.1130    4.7876    0.5989 C.2       1 <0>         0.7091
     21 O3          1.0767    5.1753    1.1031 O.2       1 <0>        -0.5880
     22 N4          3.2488    5.4938    0.7653 N.am      1 <0>        -0.8845
     23 Cl1        -2.9835    3.4556   -0.3749 Cl        1 <0>        -0.0630
     24 C15         4.6467   -5.9130   -2.4744 C.3       1 <0>         0.0937
     25 C16         3.7642   -7.0846   -2.1284 C.ar      1 <0>        -0.0917
     26 C17         4.2489   -8.1014   -1.3268 C.ar      1 <0>        -0.0670
     27 C18         3.4387   -9.1734   -1.0042 C.ar      1 <0>        -0.1530
     28 C19         2.1450   -9.2348   -1.4937 C.ar      1 <0>         0.1005
     29 C20         1.6625   -8.2186   -2.3010 C.ar      1 <0>        -0.1535
     30 C21         2.4725   -7.1445   -2.6173 C.ar      1 <0>        -0.0872
     31 F1          1.3542  -10.2855   -1.1842 F         1 <0>        -0.1388
     32 H2          7.3728   -2.0089   -0.7826 H         1 <0>         0.0527
     33 H3          6.2582   -0.9320    0.1256 H         1 <0>         0.0995
     34 H4          6.0573   -1.1433   -1.6469 H         1 <0>         0.0578
     35 H5          5.3200   -3.2731   -2.5728 H         1 <0>         0.0429
     36 H6          6.4936   -4.2645   -1.6419 H         1 <0>         0.0932
     37 H7          2.9794   -3.7553   -2.4577 H         1 <0>         0.0418
     38 H8          2.3852   -5.1142   -1.4441 H         1 <0>         0.0965
     39 H9          1.9547   -2.8331   -0.4277 H         1 <0>         0.0879
     40 H10         2.9603   -3.9008    0.6092 H         1 <0>         0.0862
     41 H11         1.8445   -0.8693   -1.2837 H         1 <0>         0.0942
     42 H12         1.7609   -0.9663    0.5080 H         1 <0>         0.0949
     43 H13        -0.0060   -0.3652   -0.4421 H         1 <0>         0.1391
     44 H14        -2.2151    0.7180   -0.4967 H         1 <0>         0.1385
     45 H15        -0.3609    4.5486   -0.1943 H         1 <0>         0.1600
     46 H16         3.0454    3.3392   -0.6429 H         1 <0>         0.4371
     47 H17         3.2383    6.4209    1.3572 H         1 <0>         0.4418
     48 H18         4.1863    5.1430    0.3092 H         1 <0>         0.4177
     49 H19         4.3666   -5.5226   -3.4639 H         1 <0>         0.0483
     50 H20         5.6974   -6.2381   -2.4926 H         1 <0>         0.0906
     51 H21         5.2598   -8.0558   -0.9493 H         1 <0>         0.1342
     52 H22         3.8160   -9.9653   -0.3741 H         1 <0>         0.1365
     53 H23         0.6537   -8.2655   -2.6837 H         1 <0>         0.1359
     54 H24         2.0964   -6.3518   -3.2470 H         1 <0>         0.1292
@<TRIPOS>BOND
     1    1    2 1
     2    1   32 1
     3    1   33 1
     4    1   34 1
     5    2    3 1
     6    2    8 1
     7    2    4 1
     8    4    5 1
     9    4   35 1
    10    4   36 1
    11    5    6 1
    12    5   24 1
    13    6    7 1
    14    6   37 1
    15    6   38 1
    16    7    8 1
    17    7   39 1
    18    7   40 1
    19    8    9 am
    20    9   10 2
    21    9   11 1
    22   11   12 1
    23   11   41 1
    24   11   42 1
    25   12   13 1
    26   13   18 ar
    27   13   14 ar
    28   14   15 ar
    29   14   43 1
    30   15   16 ar
    31   15   44 1
    32   16   17 ar
    33   16   23 1
    34   17   18 ar
    35   17   45 1
    36   18   19 1
    37   19   20 am
    38   19   46 1
    39   20   21 2
    40   20   22 am
    41   22   47 1
    42   22   48 1
    43   24   25 1
    44   24   49 1
    45   24   50 1
    46   25   30 ar
    47   25   26 ar
    48   26   27 ar
    49   26   51 1
    50   27   28 ar
    51   27   52 1
    52   28   29 ar
    53   28   31 1
    54   29   30 ar
    55   29   53 1
    56   30   54 1
