@<TRIPOS>MOLECULE
ZINC02562349
   37    37     0     0     0
SMALL
USER_CHARGES

@<TRIPOS>ATOM
      1 C1         -0.3583    1.7337   -0.8256 C.3       1 <0>        -0.1592
      2 C2         -0.2264    0.2269   -0.5956 C.3       1 <0>        -0.1199
      3 C3          0.5456   -0.4008   -1.7579 C.3       1 <0>        -0.1494
      4 C4          0.6775   -1.9077   -1.5279 C.3       1 <0>        -0.0157
      5 N1          1.4188   -2.5103   -2.6439 N.4       1 <0>        -0.3721
      6 C5          2.7894   -1.9854   -2.6590 C.3       1 <0>        -0.0071
      7 C6          3.5417   -2.5478   -3.8670 C.3       1 <0>         0.0607
      8 H1          3.0308   -2.2528   -4.7836 H         1 <0>         0.0939
      9 C7          3.5796   -4.0758   -3.7718 C.3       1 <0>         0.0286
     10 H2          4.1348   -4.3719   -2.8817 H         1 <0>         0.0886
     11 C8          2.1463   -4.6075   -3.6816 C.3       1 <0>         0.1046
     12 H3          2.1668   -5.6902   -3.5576 H         1 <0>         0.1087
     13 C9          1.4457   -3.9688   -2.4805 C.3       1 <0>         0.0405
     14 H4          1.9861   -4.2218   -1.5684 H         1 <0>         0.1590
     15 C10         0.0130   -4.4973   -2.3862 C.3       1 <0>         0.0544
     16 O1         -0.6767   -4.2247   -3.6077 O.3       1 <0>        -0.5525
     17 O2          1.4388   -4.2777   -4.8786 O.3       1 <0>        -0.5395
     18 O3          4.2174   -4.6113   -4.9330 O.3       1 <0>        -0.5478
     19 O4          4.8760   -2.0364   -3.8787 O.3       1 <0>        -0.5451
     20 H5          0.6342    2.1803   -0.8859 H         1 <0>         0.0594
     21 H6         -0.8947    1.9135   -1.7573 H         1 <0>         0.0599
     22 H7         -0.9083    2.1809    0.0024 H         1 <0>         0.0673
     23 H8          0.3101    0.0471    0.3360 H         1 <0>         0.0734
     24 H9         -1.2189   -0.2197   -0.5354 H         1 <0>         0.0735
     25 H10         0.0092   -0.2210   -2.6896 H         1 <0>         0.0887
     26 H11         1.5381    0.0458   -1.8182 H         1 <0>         0.0871
     27 H12         1.2140   -2.0874   -0.5963 H         1 <0>         0.1313
     28 H13        -0.3150   -2.3542   -1.4677 H         1 <0>         0.1367
     29 H14         2.7608   -0.8977   -2.7236 H         1 <0>         0.1458
     30 H15         3.3013   -2.2807   -1.7431 H         1 <0>         0.1377
     31 H16         0.0333   -5.5732   -2.2127 H         1 <0>         0.0931
     32 H17        -0.5020   -4.0058   -1.5607 H         1 <0>         0.0753
     33 H18        -1.5932   -4.5330   -3.6192 H         1 <0>         0.4012
     34 H19         1.8302   -4.6481   -5.6816 H         1 <0>         0.4048
     35 H20         5.1284   -4.3110   -5.0551 H         1 <0>         0.3955
     36 H21         5.4118   -2.3521   -4.6192 H         1 <0>         0.4006
     37 H22         0.9624   -2.2787   -3.5135 H         1 <0>         0.4384
@<TRIPOS>BOND
     1    1    2 1
     2    1   20 1
     3    1   21 1
     4    1   22 1
     5    2    3 1
     6    2   23 1
     7    2   24 1
     8    3    4 1
     9    3   25 1
    10    3   26 1
    11    4    5 1
    12    4   27 1
    13    4   28 1
    14    5   13 1
    15    5    6 1
    16    5   37 1
    17    6    7 1
    18    6   29 1
    19    6   30 1
    20    7    8 1
    21    7    9 1
    22    7   19 1
    23    9   10 1
    24    9   11 1
    25    9   18 1
    26   11   12 1
    27   11   13 1
    28   11   17 1
    29   13   14 1
    30   13   15 1
    31   15   16 1
    32   15   31 1
    33   15   32 1
    34   16   33 1
    35   17   34 1
    36   18   35 1
    37   19   36 1
@<TRIPOS>MOLECULE
ZINC08627075
   37    37     0     0     0
SMALL
USER_CHARGES

@<TRIPOS>ATOM
      1 C1         -0.3583    1.7337   -0.8256 C.3       1 <0>        -0.1589
      2 C2         -0.2264    0.2269   -0.5956 C.3       1 <0>        -0.1200
      3 C3          0.5456   -0.4008   -1.7579 C.3       1 <0>        -0.1471
      4 C4          0.6775   -1.9077   -1.5279 C.3       1 <0>        -0.0185
      5 N1          1.4188   -2.5103   -2.6439 N.4       1 <0>        -0.3726
      6 C5          2.7894   -1.9854   -2.6590 C.3       1 <0>        -0.0015
      7 C6          3.5417   -2.5478   -3.8670 C.3       1 <0>         0.0569
      8 H1          4.5597   -2.1583   -3.8755 H         1 <0>         0.1009
      9 C7          3.5796   -4.0758   -3.7718 C.3       1 <0>         0.0279
     10 H2          4.1348   -4.3719   -2.8817 H         1 <0>         0.0856
     11 C8          2.1463   -4.6075   -3.6816 C.3       1 <0>         0.1081
     12 H3          2.1668   -5.6902   -3.5576 H         1 <0>         0.1007
     13 C9          1.4457   -3.9688   -2.4805 C.3       1 <0>         0.0421
     14 H4          1.9861   -4.2218   -1.5684 H         1 <0>         0.1543
     15 C10         0.0130   -4.4973   -2.3862 C.3       1 <0>         0.0544
     16 O1         -0.6767   -4.2247   -3.6077 O.3       1 <0>        -0.5497
     17 O2          1.4388   -4.2777   -4.8786 O.3       1 <0>        -0.5250
     18 O3          4.2174   -4.6113   -4.9330 O.3       1 <0>        -0.5497
     19 O4          2.8725   -2.1602   -5.0687 O.3       1 <0>        -0.5471
     20 H5          0.6342    2.1803   -0.8859 H         1 <0>         0.0588
     21 H6         -0.8947    1.9135   -1.7573 H         1 <0>         0.0600
     22 H7         -0.9083    2.1809    0.0024 H         1 <0>         0.0669
     23 H8          0.3101    0.0471    0.3360 H         1 <0>         0.0725
     24 H9         -1.2189   -0.2197   -0.5354 H         1 <0>         0.0730
     25 H10         0.0092   -0.2210   -2.6896 H         1 <0>         0.0887
     26 H11         1.5381    0.0458   -1.8182 H         1 <0>         0.0852
     27 H12         1.2140   -2.0874   -0.5963 H         1 <0>         0.1284
     28 H13        -0.3150   -2.3542   -1.4677 H         1 <0>         0.1336
     29 H14         2.7608   -0.8977   -2.7236 H         1 <0>         0.1431
     30 H15         3.3013   -2.2807   -1.7431 H         1 <0>         0.1397
     31 H16         0.0333   -5.5732   -2.2127 H         1 <0>         0.0908
     32 H17        -0.5020   -4.0058   -1.5607 H         1 <0>         0.0730
     33 H18        -1.5932   -4.5330   -3.6192 H         1 <0>         0.3993
     34 H19         1.8302   -4.6481   -5.6816 H         1 <0>         0.3981
     35 H20         5.1284   -4.3110   -5.0551 H         1 <0>         0.3980
     36 H21         3.2956   -2.4829   -5.8761 H         1 <0>         0.4036
     37 H22         0.9624   -2.2787   -3.5135 H         1 <0>         0.4464
@<TRIPOS>BOND
     1    1    2 1
     2    1   20 1
     3    1   21 1
     4    1   22 1
     5    2    3 1
     6    2   23 1
     7    2   24 1
     8    3    4 1
     9    3   25 1
    10    3   26 1
    11    4    5 1
    12    4   27 1
    13    4   28 1
    14    5   13 1
    15    5    6 1
    16    5   37 1
    17    6    7 1
    18    6   29 1
    19    6   30 1
    20    7    8 1
    21    7    9 1
    22    7   19 1
    23    9   10 1
    24    9   11 1
    25    9   18 1
    26   11   12 1
    27   11   13 1
    28   11   17 1
    29   13   14 1
    30   13   15 1
    31   15   16 1
    32   15   31 1
    33   15   32 1
    34   16   33 1
    35   17   34 1
    36   18   35 1
    37   19   36 1
@<TRIPOS>MOLECULE
ZINC03794714
   25    25     0     0     0
SMALL
USER_CHARGES

@<TRIPOS>ATOM
      1 C1         -0.0178    1.4636    0.0101 C.3       1 <0>        -0.0466
      2 C2          1.4163    1.9970   -0.0007 C.3       1 <0>         0.0566
      3 H1          1.9452    1.6372    0.8818 H         1 <0>         0.0917
      4 C3          2.1299    1.5015   -1.2619 C.3       1 <0>         0.0695
      5 H2          1.6316    1.9031   -2.1442 H         1 <0>         0.0909
      6 C4          2.0795   -0.0286   -1.2972 C.3       1 <0>         0.1094
      7 H3          2.6221   -0.4305   -0.4415 H         1 <0>         0.0913
      8 C5          0.6208   -0.4870   -1.2383 C.3       1 <0>         0.0351
      9 H4          0.0792   -0.0848   -2.0945 H         1 <0>         0.1577
     10 N1          0.0021   -0.0041    0.0020 N.4       1 <0>        -0.4918
     11 C6          0.5654   -2.0156   -1.2729 C.3       1 <0>         0.0570
     12 O1         -0.7972   -2.4415   -1.3354 O.3       1 <0>        -0.5813
     13 O2          2.6797   -0.4981   -2.5061 O.3       1 <0>        -0.5386
     14 O3          3.4911    1.9360   -1.2427 O.3       1 <0>        -0.5488
     15 O4          1.3941    3.4258    0.0058 O.3       1 <0>        -0.5365
     16 H5         -0.5288    1.8147    0.9066 H         1 <0>         0.1451
     17 H6         -0.5458    1.8242   -0.8727 H         1 <0>         0.1438
     18 H7          0.5329   -0.3366    0.7931 H         1 <0>         0.4276
     19 H8          1.1002   -2.3788   -2.1504 H         1 <0>         0.1086
     20 H9          1.0304   -2.4165   -0.3722 H         1 <0>         0.0746
     21 H10        -0.9084   -3.4018   -1.3601 H         1 <0>         0.4135
     22 H11         3.6059   -0.2409   -2.6111 H         1 <0>         0.4148
     23 H12         3.5970    2.8968   -1.2145 H         1 <0>         0.4074
     24 H13         0.9534    3.8088    0.7767 H         1 <0>         0.4013
     25 H14        -0.9428   -0.3526    0.0632 H         1 <0>         0.4478
@<TRIPOS>BOND
     1    1   10 1
     2    1    2 1
     3    1   16 1
     4    1   17 1
     5    2    3 1
     6    2    4 1
     7    2   15 1
     8    4    5 1
     9    4    6 1
    10    4   14 1
    11    6    7 1
    12    6    8 1
    13    6   13 1
    14    8    9 1
    15    8   10 1
    16    8   11 1
    17   10   18 1
    18   10   25 1
    19   11   12 1
    20   11   19 1
    21   11   20 1
    22   12   21 1
    23   13   22 1
    24   14   23 1
    25   15   24 1
@<TRIPOS>MOLECULE
ZINC13612559
   25    25     0     0     0
SMALL
USER_CHARGES
(2S,3S,4S,5R)-2-(hydroxymethyl)piperidine-3,4,5-triol
@<TRIPOS>ATOM
      1 C1         -1.5246    3.8978   -0.0354 C.3       1 <0>        -0.0421
      2 C2         -0.8057    3.4487    1.2388 C.3       1 <0>         0.0567
      3 H1          0.2039    3.8596    1.2511 H         1 <0>         0.0912
      4 C3         -0.7356    1.9194    1.2684 C.3       1 <0>         0.0698
      5 H2         -1.7452    1.5095    1.2965 H         1 <0>         0.0901
      6 C4         -0.0173    1.4248    0.0099 C.3       1 <0>         0.1095
      7 H3          1.0051    1.8026    0.0021 H         1 <0>         0.0908
      8 C5         -0.7590    1.9325   -1.2287 C.3       1 <0>         0.0394
      9 H4         -1.7769    1.5425   -1.2278 H         1 <0>         0.1570
     10 C6         -0.0323    1.4576   -2.4885 C.3       1 <0>         0.0567
     11 O1         -0.7865    1.8317   -3.6431 O.3       1 <0>        -0.5813
     12 O2          0.0021   -0.0041    0.0020 O.3       1 <0>        -0.5389
     13 O3         -0.0146    1.4959    2.4273 O.3       1 <0>        -0.5489
     14 O4         -1.5247    3.9156    2.3821 O.3       1 <0>        -0.5369
     15 H5         -1.5629    4.9867   -0.0662 H         1 <0>         0.1436
     16 H6         -2.5388    3.4985   -0.0401 H         1 <0>         0.1429
     17 H7          0.9545    1.9183   -2.5342 H         1 <0>         0.0743
     18 H8          0.0741    0.3732   -2.4596 H         1 <0>         0.1079
     19 H9         -0.3842    1.5620   -4.4801 H         1 <0>         0.4133
     20 H10         0.4564   -0.3954    0.7607 H         1 <0>         0.4147
     21 H11        -0.4139    1.7750    3.2627 H         1 <0>         0.4073
     22 H12        -1.6102    4.8778    2.4270 H         1 <0>         0.4012
     23 N1         -0.7925    3.4075   -1.2187 N.4       1 <0>        -0.5027
     24 H13         0.1688    3.7675   -1.1948 H         1 <0>         0.4319
     25 H14        -1.2618    3.7409   -2.0689 H         1 <0>         0.4525
@<TRIPOS>BOND
     1    1    2 1
     2    1   15 1
     3    1   16 1
     4    1   23 1
     5    2    3 1
     6    2    4 1
     7    2   14 1
     8    4    5 1
     9    4    6 1
    10    4   13 1
    11    6    7 1
    12    6    8 1
    13    6   12 1
    14    8    9 1
    15    8   10 1
    16    8   23 1
    17   10   11 1
    18   10   17 1
    19   10   18 1
    20   11   19 1
    21   12   20 1
    22   13   21 1
    23   14   22 1
    24   23   24 1
    25   23   25 1
