@<TRIPOS>MOLECULE
ZINC13553652
   26    27     0     0     0
SMALL
USER_CHARGES

@<TRIPOS>ATOM
      1 C1         -0.0184    1.5028    0.0103 C.3       1 <0>        -0.1183
      2 C2          0.0021   -0.0041    0.0020 C.ar      1 <0>        -0.0854
      3 C3          0.0058   -0.6862   -1.1982 C.ar      1 <0>        -0.0525
      4 C4          0.0245   -2.0712   -1.2222 C.ar      1 <0>        -0.0555
      5 C5          0.0401   -2.7837   -0.0382 C.ar      1 <0>        -0.0276
      6 C6          0.0370   -2.1047    1.1748 C.ar      1 <0>        -0.0922
      7 C7          0.0230   -0.7040    1.2030 C.ar      1 <0>         0.1706
      8 N1          0.0288   -0.2712    2.5249 N.am      1 <0>        -0.6394
      9 C8          0.0509   -1.3070    3.3808 C.2       1 <0>         0.5424
     10 O1          0.0604   -1.2322    4.5955 O.2       1 <0>        -0.4792
     11 C9          0.0502   -2.5513    2.5873 C.2       1 <0>         0.1089
     12 N2          0.0692   -3.7841    3.0350 N.2       1 <0>        -0.1741
     13 N3          0.0795   -4.0282    4.4146 N.pl3     1 <0>        -0.5275
     14 C10         0.0990   -5.2949    4.8746 C.2       1 <0>         0.5920
     15 S1          0.1116   -5.5932    6.5604 S.2       1 <0>        -0.5775
     16 N4          0.1087   -6.3267    4.0076 N.pl3     1 <0>        -0.7806
     17 Cl1         0.0277   -2.9124   -2.7408 Cl        1 <0>        -0.0483
     18 H1          1.0042    1.8801    0.0026 H         1 <0>         0.0814
     19 H2         -0.5455    1.8639   -0.8728 H         1 <0>         0.0819
     20 H3         -0.5286    1.8543    0.9071 H         1 <0>         0.0681
     21 H4         -0.0064   -0.1351   -2.1269 H         1 <0>         0.1511
     22 H5          0.0544   -3.8634   -0.0551 H         1 <0>         0.1493
     23 H6          0.0185    0.6605    2.7948 H         1 <0>         0.4292
     24 H7          0.0726   -3.2856    5.0386 H         1 <0>         0.4385
     25 H8          0.1015   -6.1576    3.0525 H         1 <0>         0.4088
     26 H9          0.1227   -7.2383    4.3387 H         1 <0>         0.4359
@<TRIPOS>BOND
     1    1    2 1
     2    1   18 1
     3    1   19 1
     4    1   20 1
     5    2    7 ar
     6    2    3 ar
     7    3    4 ar
     8    3   21 1
     9    4    5 ar
    10    4   17 1
    11    5    6 ar
    12    5   22 1
    13    6   11 1
    14    6    7 ar
    15    7    8 1
    16    8    9 am
    17    8   23 1
    18    9   10 2
    19    9   11 1
    20   11   12 2
    21   12   13 1
    22   13   14 1
    23   13   24 1
    24   14   15 2
    25   14   16 1
    26   16   25 1
    27   16   26 1
@<TRIPOS>MOLECULE
ZINC13553652
   27    28     0     0     0
SMALL
USER_CHARGES

@<TRIPOS>ATOM
      1 C1         -0.0184    1.5028    0.0103 C.3       1 <0>        -0.1350
      2 C2          0.0021   -0.0041    0.0020 C.ar      1 <0>        -0.0128
      3 C3          0.0058   -0.6871   -1.1965 C.ar      1 <0>        -0.0766
      4 C4          0.0250   -2.0737   -1.2188 C.ar      1 <0>         0.0022
      5 C5          0.0406   -2.7869   -0.0370 C.ar      1 <0>        -0.0579
      6 C6          0.0371   -2.1081    1.1776 C.ar      1 <0>        -0.0227
      7 C7          0.0230   -0.7052    1.2017 C.ar      1 <0>         0.0634
      8 N1          0.0292   -0.3002    2.5267 N.pl3     1 <0>        -0.4790
      9 H1          0.0187    0.6238    2.8216 H         1 <0>         0.4522
     10 C8          0.0516   -1.3740    3.3539 C.2       1 <0>         0.4611
     11 C9          0.0499   -2.5424    2.5892 C.2       1 <0>        -0.0112
     12 N2          0.0693   -3.8012    3.0435 N.2       1 <0>        -0.0283
     13 N3          0.0786   -4.0287    4.3132 N.pl3     1 <0>        -0.4039
     14 C10         0.0981   -5.2962    4.7706 C.2       1 <0>         0.4792
     15 N4          0.1080   -6.3456    3.8852 N.pl3     1 <0>        -0.7677
     16 S1          0.1102   -5.5889    6.4046 S.3       1 <0>        -0.3459
     17 O1          0.0630   -1.3221    4.7029 O.3       1 <0>        -0.4447
     18 Cl1         0.0288   -2.9148   -2.7374 Cl        1 <0>        -0.0127
     19 H2          1.0042    1.8801    0.0026 H         1 <0>         0.0966
     20 H3         -0.5455    1.8639   -0.8728 H         1 <0>         0.0977
     21 H4         -0.5286    1.8543    0.9071 H         1 <0>         0.0724
     22 H5         -0.0067   -0.1372   -2.1259 H         1 <0>         0.1671
     23 H6          0.0552   -3.8667   -0.0551 H         1 <0>         0.1624
     24 H7         -0.8170   -1.3197    5.1038 H         1 <0>         0.4512
     25 H8          0.1009   -6.1746    2.9304 H         1 <0>         0.4133
     26 H9          0.0717   -3.2874    4.9388 H         1 <0>         0.4320
     27 H10         0.1220   -7.2579    4.2144 H         1 <0>         0.4478
@<TRIPOS>BOND
     1    1    2 1
     2    1   19 1
     3    1   20 1
     4    1   21 1
     5    2    7 ar
     6    2    3 ar
     7    3    4 ar
     8    3   22 1
     9    4    5 ar
    10    4   18 1
    11    5    6 ar
    12    5   23 1
    13    6   11 1
    14    6    7 ar
    15    7    8 1
    16    8    9 1
    17    8   10 1
    18   10   11 2
    19   10   17 1
    20   11   12 1
    21   12   13 2
    22   13   14 1
    23   13   26 1
    24   14   15 2
    25   14   16 1
    26   15   25 1
    27   15   27 1
    28   17   24 1
@<TRIPOS>MOLECULE
ZINC13553652
   26    27     0     0     0
SMALL
USER_CHARGES

@<TRIPOS>ATOM
      1 C1         -0.0184    1.5028    0.0103 C.3       1 <0>        -0.1246
      2 C2          0.0021   -0.0041    0.0020 C.ar      1 <0>        -0.0417
      3 C3          0.0057   -0.6871   -1.1963 C.ar      1 <0>        -0.0839
      4 C4          0.0240   -2.0738   -1.2186 C.ar      1 <0>        -0.0137
      5 C5          0.0392   -2.7872   -0.0372 C.ar      1 <0>        -0.0619
      6 C6          0.0362   -2.1084    1.1778 C.ar      1 <0>        -0.0084
      7 C7          0.0230   -0.7053    1.2017 C.ar      1 <0>         0.0818
      8 N1          0.0300   -0.3013    2.5266 N.pl3     1 <0>        -0.5226
      9 H1          0.0197    0.6224    2.8225 H         1 <0>         0.4403
     10 C8          0.0524   -1.3772    3.3529 C.2       1 <0>         0.4242
     11 C9          0.0484   -2.5425    2.5890 C.2       1 <0>        -0.0925
     12 N2          0.0672   -3.8042    3.0437 N.2       1 <0>         0.0349
     13 N3          0.0760   -4.0320    4.3134 N.pl3     1 <0>        -0.2980
     14 C10         0.0950   -5.3118    4.7747 C.2       1 <0>         0.4643
     15 N4          0.1044   -6.3111    3.9308 N.2       1 <0>        -0.6828
     16 S1          0.1071   -5.6231    6.5090 S.3       1 <0>        -0.8191
     17 O1          0.0645   -1.3268    4.7026 O.3       1 <0>        -0.4517
     18 Cl1         0.0271   -2.9148   -2.7373 Cl        1 <0>        -0.0350
     19 H2          1.0042    1.8801    0.0026 H         1 <0>         0.0868
     20 H3         -0.5455    1.8639   -0.8728 H         1 <0>         0.0883
     21 H4         -0.5286    1.8543    0.9071 H         1 <0>         0.0673
     22 H5         -0.0061   -0.1371   -2.1257 H         1 <0>         0.1560
     23 H6          0.0531   -3.8670   -0.0554 H         1 <0>         0.1594
     24 H7         -0.8153   -1.3245    5.1040 H         1 <0>         0.4403
     25 H8          0.0690   -3.2910    4.9392 H         1 <0>         0.4165
     26 H9          0.1180   -7.2236    4.2597 H         1 <0>         0.3757
@<TRIPOS>BOND
     1    1    2 1
     2    1   19 1
     3    1   20 1
     4    1   21 1
     5    2    7 ar
     6    2    3 ar
     7    3    4 ar
     8    3   22 1
     9    4    5 ar
    10    4   18 1
    11    5    6 ar
    12    5   23 1
    13    6   11 1
    14    6    7 ar
    15    7    8 1
    16    8    9 1
    17    8   10 1
    18   10   11 2
    19   10   17 1
    20   11   12 1
    21   12   13 2
    22   13   14 1
    23   13   25 1
    24   14   15 2
    25   14   16 1
    26   15   26 1
    27   17   24 1
@<TRIPOS>MOLECULE
ZINC13553652
   26    27     0     0     0
SMALL
USER_CHARGES

@<TRIPOS>ATOM
      1 C1         -0.0184    1.5028    0.0103 C.3       1 <0>        -0.1186
      2 C2          0.0021   -0.0041    0.0020 C.ar      1 <0>        -0.0590
      3 C3          0.0058   -0.6871   -1.1965 C.ar      1 <0>        -0.0901
      4 C4          0.0250   -2.0737   -1.2188 C.ar      1 <0>        -0.0287
      5 C5          0.0406   -2.7869   -0.0370 C.ar      1 <0>        -0.0607
      6 C6          0.0371   -2.1081    1.1776 C.ar      1 <0>        -0.0193
      7 C7          0.0230   -0.7052    1.2017 C.ar      1 <0>         0.0915
      8 N1          0.0292   -0.3002    2.5267 N.pl3     1 <0>        -0.5589
      9 H1          0.0187    0.6238    2.8216 H         1 <0>         0.4274
     10 C8          0.0516   -1.3740    3.3539 C.2       1 <0>         0.4014
     11 C9          0.0499   -2.5424    2.5892 C.2       1 <0>        -0.0521
     12 N2          0.0693   -3.8012    3.0435 N.2       1 <0>        -0.0326
     13 N3          0.0786   -4.0287    4.3132 N.2       1 <0>        -0.3602
     14 C10         0.0981   -5.2962    4.7706 C.cat     1 <0>         0.4875
     15 N4          0.1081   -5.5383    6.1222 N.pl3     1 <0>        -0.7771
     16 S1          0.1100   -6.5648    3.7001 S.3       1 <0>        -0.5341
     17 O1          0.0630   -1.3221    4.7029 O.3       1 <0>        -0.4397
     18 Cl1         0.0288   -2.9148   -2.7374 Cl        1 <0>        -0.0511
     19 H2          1.0042    1.8801    0.0026 H         1 <0>         0.0803
     20 H3         -0.5455    1.8639   -0.8728 H         1 <0>         0.0820
     21 H4         -0.5286    1.8543    0.9071 H         1 <0>         0.0637
     22 H5         -0.0067   -0.1372   -2.1259 H         1 <0>         0.1474
     23 H6          0.0552   -3.8667   -0.0551 H         1 <0>         0.1527
     24 H7         -0.8170   -1.3197    5.1038 H         1 <0>         0.4194
     25 H8          0.1011   -4.7970    6.7477 H         1 <0>         0.4007
     26 H9          0.1221   -6.4506    6.4514 H         1 <0>         0.4280
@<TRIPOS>BOND
     1    1    2 1
     2    1   19 1
     3    1   20 1
     4    1   21 1
     5    2    7 ar
     6    2    3 ar
     7    3    4 ar
     8    3   22 1
     9    4    5 ar
    10    4   18 1
    11    5    6 ar
    12    5   23 1
    13    6   11 1
    14    6    7 ar
    15    7    8 1
    16    8    9 1
    17    8   10 1
    18   10   11 2
    19   10   17 1
    20   11   12 1
    21   12   13 2
    22   13   14 1
    23   14   15 2
    24   14   16 1
    25   15   25 1
    26   15   26 1
    27   17   24 1
@<TRIPOS>MOLECULE
ZINC13553652
   26    27     0     0     0
SMALL
USER_CHARGES

@<TRIPOS>ATOM
      1 C1         -0.0184    1.5028    0.0103 C.3       1 <0>        -0.1252
      2 C2          0.0021   -0.0041    0.0020 C.ar      1 <0>        -0.0403
      3 C3          0.0057   -0.6871   -1.1963 C.ar      1 <0>        -0.0835
      4 C4          0.0240   -2.0738   -1.2186 C.ar      1 <0>        -0.0130
      5 C5          0.0392   -2.7872   -0.0372 C.ar      1 <0>        -0.0644
      6 C6          0.0362   -2.1084    1.1778 C.ar      1 <0>        -0.0118
      7 C7          0.0230   -0.7053    1.2017 C.ar      1 <0>         0.0828
      8 N1          0.0300   -0.3013    2.5266 N.pl3     1 <0>        -0.5225
      9 H1          0.0197    0.6224    2.8225 H         1 <0>         0.4409
     10 C8          0.0524   -1.3772    3.3529 C.2       1 <0>         0.4256
     11 C9          0.0484   -2.5425    2.5890 C.2       1 <0>        -0.0840
     12 N2          0.0672   -3.8042    3.0437 N.2       1 <0>        -0.0119
     13 N3          0.0760   -4.0320    4.3134 N.pl3     1 <0>        -0.3274
     14 C10         0.0950   -5.3118    4.7747 C.2       1 <0>         0.4502
     15 N4          0.1044   -6.3111    3.9308 N.2       1 <0>        -0.6542
     16 S1          0.1071   -5.6231    6.5090 S.3       1 <0>        -0.7057
     17 O1          0.0645   -1.3268    4.7026 O.3       1 <0>        -0.4502
     18 Cl1         0.0271   -2.9148   -2.7373 Cl        1 <0>        -0.0339
     19 H2          1.0042    1.8801    0.0026 H         1 <0>         0.0874
     20 H3         -0.5455    1.8639   -0.8728 H         1 <0>         0.0889
     21 H4         -0.5286    1.8543    0.9071 H         1 <0>         0.0677
     22 H5         -0.0061   -0.1371   -2.1257 H         1 <0>         0.1567
     23 H6          0.0531   -3.8670   -0.0554 H         1 <0>         0.1571
     24 H7         -0.8153   -1.3245    5.1040 H         1 <0>         0.4404
     25 H8          0.0690   -3.2910    4.9392 H         1 <0>         0.4031
     26 H9          0.0978   -6.1398    2.9761 H         1 <0>         0.3273
@<TRIPOS>BOND
     1    1    2 1
     2    1   19 1
     3    1   20 1
     4    1   21 1
     5    2    7 ar
     6    2    3 ar
     7    3    4 ar
     8    3   22 1
     9    4    5 ar
    10    4   18 1
    11    5    6 ar
    12    5   23 1
    13    6   11 1
    14    6    7 ar
    15    7    8 1
    16    8    9 1
    17    8   10 1
    18   10   11 2
    19   10   17 1
    20   11   12 1
    21   12   13 2
    22   13   14 1
    23   13   25 1
    24   14   15 2
    25   14   16 1
    26   15   26 1
    27   17   24 1
@<TRIPOS>MOLECULE
ZINC06473379
   26    27     0     0     0
SMALL
USER_CHARGES

@<TRIPOS>ATOM
      1 C1         -0.0167    1.3816    0.0096 C.ar      1 <0>        -0.0170
      2 C2          1.1609    2.1003    0.0023 C.ar      1 <0>        -0.0665
      3 C3          2.3807    1.4347   -0.0130 C.ar      1 <0>         0.1199
      4 C4          2.3976    0.0316   -0.0207 C.ar      1 <0>        -0.0461
      5 C5          1.2032   -0.6822   -0.0135 C.ar      1 <0>         0.0078
      6 C6          0.0021   -0.0041    0.0020 C.ar      1 <0>        -0.0173
      7 N1         -1.2711   -0.7590    0.0101 N.pl3     1 <0>         0.0204
      8 O1         -2.3250   -0.1668    0.0234 O.2       1 <0>        -0.1208
      9 O2         -1.2571   -1.9679    0.0035 O.3       1 <0>        -0.1303
     10 C7          3.8212   -0.3613   -0.0364 C.2       1 <0>        -0.0176
     11 C8          4.5514    0.8288   -0.0370 C.2       1 <0>         0.4839
     12 N2          3.6929    1.8781   -0.0231 N.pl3     1 <0>        -0.4950
     13 H1          3.9606    2.8104   -0.0212 H         1 <0>         0.4582
     14 O3          5.8982    0.9201   -0.0494 O.3       1 <0>        -0.4413
     15 N3          4.3121   -1.6065   -0.0478 N.2       1 <0>        -0.0190
     16 N4          5.5879   -1.7967   -0.0610 N.pl3     1 <0>        -0.3913
     17 C9          6.0822   -3.0505   -0.0725 C.2       1 <0>         0.4974
     18 S1          7.7754   -3.3030   -0.0901 S.2       1 <0>        -0.3820
     19 N5          5.2436   -4.1056   -0.0702 N.pl3     1 <0>        -0.7457
     20 H2         -0.9620    1.9037    0.0260 H         1 <0>         0.1855
     21 H3          1.1347    3.1800    0.0080 H         1 <0>         0.1768
     22 H4          1.2165   -1.7621   -0.0198 H         1 <0>         0.1798
     23 H5          6.2821    0.9515   -0.9363 H         1 <0>         0.4563
     24 H6          4.2842   -3.9625   -0.0603 H         1 <0>         0.4168
     25 H7          5.5993   -5.0079   -0.0785 H         1 <0>         0.4524
     26 H8          6.1915   -1.0374   -0.0627 H         1 <0>         0.4345
@<TRIPOS>BOND
     1    1    6 ar
     2    1    2 ar
     3    1   20 1
     4    2    3 ar
     5    2   21 1
     6    3   12 1
     7    3    4 ar
     8    4    5 ar
     9    4   10 1
    10    5    6 ar
    11    5   22 1
    12    6    7 1
    13    7    8 2
    14    7    9 1
    15   10   11 2
    16   10   15 1
    17   11   12 1
    18   11   14 1
    19   12   13 1
    20   14   23 1
    21   15   16 2
    22   16   17 1
    23   16   26 1
    24   17   18 2
    25   17   19 1
    26   19   24 1
    27   19   25 1
@<TRIPOS>MOLECULE
ZINC06473379
   24    25     0     0     0
SMALL
USER_CHARGES

@<TRIPOS>ATOM
      1 C1         -0.0167    1.3816    0.0096 C.ar      1 <0>        -0.0050
      2 C2          1.1574    2.1032    0.0023 C.ar      1 <0>        -0.1582
      3 C3          2.3874    1.4377   -0.0130 C.ar      1 <0>         0.2573
      4 C4          2.3961    0.0277   -0.0207 C.ar      1 <0>        -0.1872
      5 C5          1.2053   -0.6832   -0.0128 C.ar      1 <0>         0.0395
      6 C6          0.0021   -0.0041    0.0020 C.ar      1 <0>        -0.1391
      7 N1         -1.2711   -0.7591    0.0106 N.pl3     1 <0>         0.0596
      8 O1         -2.3250   -0.1669    0.0243 O.2       1 <0>        -0.1908
      9 O2         -1.2570   -1.9680    0.0040 O.3       1 <0>        -0.1952
     10 C7          3.8251   -0.3595   -0.0369 C.2       1 <0>         0.0898
     11 N2          4.3329   -1.5709   -0.0489 N.2       1 <0>        -0.2299
     12 N3          5.6124   -1.7338   -0.0623 N.pl3     1 <0>        -0.4707
     13 C8          6.1334   -2.9768   -0.0746 C.2       1 <0>         0.5874
     14 S1          7.8316   -3.1930   -0.0925 S.2       1 <0>        -0.6096
     15 N4          5.3175   -4.0495   -0.0727 N.pl3     1 <0>        -0.7828
     16 C9          4.5482    0.9262   -0.0372 C.2       1 <0>         0.4482
     17 O3          5.8942    1.0794   -0.0493 O.3       1 <0>        -0.6131
     18 N5          3.6675    1.8929   -0.0233 N.2       1 <0>        -0.6114
     19 H1         -0.9628    1.9022    0.0260 H         1 <0>         0.1469
     20 H2          1.1277    3.1828    0.0080 H         1 <0>         0.1447
     21 H3          1.2183   -1.7631   -0.0191 H         1 <0>         0.1412
     22 H4          6.1997   -0.9618   -0.0637 H         1 <0>         0.4372
     23 H5          4.3553   -3.9270   -0.0626 H         1 <0>         0.4102
     24 H6          5.6924   -4.9440   -0.0815 H         1 <0>         0.4310
@<TRIPOS>BOND
     1    1    6 ar
     2    1    2 ar
     3    1   19 1
     4    2    3 ar
     5    2   20 1
     6    3   18 1
     7    3    4 ar
     8    4    5 ar
     9    4   10 1
    10    5    6 ar
    11    5   21 1
    12    6    7 1
    13    7    8 2
    14    7    9 1
    15   10   11 2
    16   10   16 1
    17   11   12 1
    18   12   13 1
    19   12   22 1
    20   13   14 2
    21   13   15 1
    22   15   23 1
    23   15   24 1
    24   16   17 1
    25   16   18 2
@<TRIPOS>MOLECULE
ZINC06473379
   24    25     0     0     0
SMALL
USER_CHARGES

@<TRIPOS>ATOM
      1 C1          0.0485    1.3981    0.6357 C.ar      1 <0>        -0.0009
      2 C2          1.1944    2.1126    0.3601 C.ar      1 <0>        -0.1594
      3 C3          2.4048    1.4421    0.1566 C.ar      1 <0>         0.2694
      4 C4          2.4233    0.0346    0.2395 C.ar      1 <0>        -0.2581
      5 C5          1.2610   -0.6690    0.5181 C.ar      1 <0>         0.0249
      6 C6          0.0767    0.0149    0.7151 C.ar      1 <0>        -0.1366
      7 N1         -1.1659   -0.7324    1.0128 N.pl3     1 <0>         0.0571
      8 O1         -2.2032   -0.1359    1.1862 O.2       1 <0>        -0.1882
      9 O2         -1.1436   -1.9392    1.0826 O.3       1 <0>        -0.1885
     10 C7          3.8267   -0.3591   -0.0205 C.2       1 <0>         0.1051
     11 N2          4.3329   -1.5709   -0.0489 N.2       1 <0>        -0.2199
     12 N3          3.5568   -2.5965    0.0502 N.pl3     1 <0>        -0.4881
     13 C8          4.0834   -3.8339    0.1395 C.2       1 <0>         0.5871
     14 S1          3.0534   -5.1951    0.2710 S.2       1 <0>        -0.6091
     15 N4          5.4208   -3.9998    0.1253 N.pl3     1 <0>        -0.7769
     16 C9          4.5264    0.9206   -0.2410 C.2       1 <0>         0.5027
     17 O3          5.8447    1.0668   -0.5165 O.3       1 <0>        -0.5895
     18 N5          3.6563    1.8900   -0.1244 N.2       1 <0>        -0.6124
     19 H1         -0.8817    1.9229    0.7961 H         1 <0>         0.1486
     20 H2          1.1575    3.1903    0.3008 H         1 <0>         0.1459
     21 H3          1.2814   -1.7470    0.5799 H         1 <0>         0.1293
     22 H4          2.5942   -2.4772    0.0605 H         1 <0>         0.4113
     23 H5          6.0044   -3.2285    0.0508 H         1 <0>         0.4144
     24 H6          5.7998   -4.8903    0.1895 H         1 <0>         0.4319
@<TRIPOS>BOND
     1    1    6 ar
     2    1    2 ar
     3    1   19 1
     4    2    3 ar
     5    2   20 1
     6    3   18 1
     7    3    4 ar
     8    4    5 ar
     9    4   10 1
    10    5    6 ar
    11    5   21 1
    12    6    7 1
    13    7    8 2
    14    7    9 1
    15   10   11 2
    16   10   16 1
    17   11   12 1
    18   12   13 1
    19   12   22 1
    20   13   14 2
    21   13   15 1
    22   15   23 1
    23   15   24 1
    24   16   17 1
    25   16   18 2
@<TRIPOS>MOLECULE
ZINC04095645
   52    52     0     0     0
SMALL
USER_CHARGES

@<TRIPOS>ATOM
      1 C1         -0.7138   -2.5640   -0.4210 C.3       1 <0>        -0.1550
      2 C2         -1.5731   -1.7628    0.5591 C.3       1 <0>        -0.1020
      3 C3         -1.0752   -2.0006    1.9862 C.3       1 <0>        -0.1465
      4 C4         -1.4727   -0.2730    0.2255 C.3       1 <0>        -0.1272
      5 C5         -2.1217   -0.0102   -1.1349 C.3       1 <0>         0.1280
      6 H1         -1.6692   -0.6591   -1.8847 H         1 <0>         0.1152
      7 C6         -3.5991   -0.2948   -1.0500 C.2       1 <0>         0.5162
      8 O1         -4.3871    0.6198   -0.9329 O.2       1 <0>        -0.5177
      9 N1         -4.0448   -1.5655   -1.1042 N.am      1 <0>        -0.7340
     10 C7         -5.4844   -1.8364   -1.1291 C.3       1 <0>         0.1167
     11 C8         -5.7180   -3.3472   -1.1906 C.3       1 <0>        -0.1305
     12 C9         -7.2214   -3.6302   -1.2165 C.3       1 <0>        -0.1313
     13 C10        -7.4550   -5.1410   -1.2780 C.3       1 <0>         0.0931
     14 N2         -8.8945   -5.4119   -1.3029 N.pl3     1 <0>        -0.6928
     15 C11        -9.3469   -6.7016   -1.3579 C.cat     1 <0>         0.7409
     16 N3        -10.6557   -6.9479   -1.3805 N.pl3     1 <0>        -0.7959
     17 N4         -8.4786   -7.7112   -1.3889 N.pl3     1 <0>        -0.7940
     18 N5         -1.9150    1.3902   -1.5121 N.am      1 <0>        -0.7100
     19 C12        -0.8081    1.7485   -2.1925 C.2       1 <0>         0.5464
     20 O2         -0.0284    0.9005   -2.5718 O.2       1 <0>        -0.5314
     21 C13        -0.5393    3.2028   -2.4820 C.3       1 <0>        -0.0416
     22 H2         -1.0786    3.6237   -3.3306 H         1 <0>         0.1494
     23 C14        -0.2465    4.1236   -1.2957 C.3       1 <0>        -0.0276
     24 H3         -0.2465    3.6830   -0.2987 H         1 <0>         0.1137
     25 O3          0.7708    3.7047   -2.2104 O.3       1 <0>        -0.3182
     26 C15        -0.7234    5.5507   -1.3799 C.2       1 <0>         0.5091
     27 O4         -1.9177    5.7932   -1.4162 O.co2     1 <0>        -0.6728
     28 O5          0.0851    6.4627   -1.4118 O.co2     1 <0>        -0.6670
     29 H4         -0.7071   -3.6130   -0.1249 H         1 <0>         0.0565
     30 H5         -1.1272   -2.4726   -1.4254 H         1 <0>         0.0534
     31 H6          0.3052   -2.1772   -0.4109 H         1 <0>         0.0656
     32 H7         -2.6116   -2.0841    0.4784 H         1 <0>         0.0707
     33 H8         -0.0367   -1.6793    2.0669 H         1 <0>         0.0600
     34 H9         -1.6874   -1.4298    2.6844 H         1 <0>         0.0559
     35 H10        -1.1467   -3.0619    2.2239 H         1 <0>         0.0551
     36 H11        -1.9877    0.3064    0.9918 H         1 <0>         0.0766
     37 H12        -0.4239    0.0216    0.1907 H         1 <0>         0.0871
     38 H13        -3.4125   -2.3007   -1.1268 H         1 <0>         0.4033
     39 H14        -5.9455   -1.4339   -0.2271 H         1 <0>         0.0730
     40 H15        -5.9279   -1.3642   -2.0057 H         1 <0>         0.0716
     41 H16        -5.2569   -3.7498   -2.0925 H         1 <0>         0.0792
     42 H17        -5.2745   -3.8195   -0.3140 H         1 <0>         0.0792
     43 H18        -7.6825   -3.2276   -0.3146 H         1 <0>         0.0868
     44 H19        -7.6649   -3.1580   -2.0931 H         1 <0>         0.0868
     45 H20        -6.9939   -5.5435   -2.1800 H         1 <0>         0.0938
     46 H21        -7.0115   -5.6132   -0.4014 H         1 <0>         0.0938
     47 H22        -9.5269   -4.6767   -1.2803 H         1 <0>         0.4368
     48 H23       -11.2880   -6.2127   -1.3580 H         1 <0>         0.4411
     49 H24        -7.5255   -7.5318   -1.3724 H         1 <0>         0.4401
     50 H25        -8.7994   -8.6258   -1.4279 H         1 <0>         0.4400
     51 H26        -2.5747    2.0596   -1.2722 H         1 <0>         0.4200
     52 H27       -10.9765   -7.8625   -1.4195 H         1 <0>         0.4403
@<TRIPOS>BOND
     1    1    2 1
     2    1   29 1
     3    1   30 1
     4    1   31 1
     5    2    3 1
     6    2    4 1
     7    2   32 1
     8    3   33 1
     9    3   34 1
    10    3   35 1
    11    4    5 1
    12    4   36 1
    13    4   37 1
    14    5    6 1
    15    5    7 1
    16    5   18 1
    17    7    8 2
    18    7    9 am
    19    9   10 1
    20    9   38 1
    21   10   11 1
    22   10   39 1
    23   10   40 1
    24   11   12 1
    25   11   41 1
    26   11   42 1
    27   12   13 1
    28   12   43 1
    29   12   44 1
    30   13   14 1
    31   13   45 1
    32   13   46 1
    33   14   15 1
    34   14   47 1
    35   15   16 2
    36   15   17 1
    37   16   48 1
    38   16   52 1
    39   17   49 1
    40   17   50 1
    41   18   19 am
    42   18   51 1
    43   19   20 2
    44   19   21 1
    45   21   22 1
    46   21   25 1
    47   21   23 1
    48   23   24 1
    49   23   25 1
    50   23   26 1
    51   26   27 2
    52   26   28 1
@<TRIPOS>MOLECULE
ZINC04475165
   52    52     0     0     0
SMALL
USER_CHARGES

@<TRIPOS>ATOM
      1 C1         -0.7600   -2.5948   -0.4137 C.3       1 <0>        -0.1547
      2 C2         -1.6080   -1.7789    0.5642 C.3       1 <0>        -0.1033
      3 C3         -1.1153   -2.0220    1.9922 C.3       1 <0>        -0.1443
      4 C4         -1.4843   -0.2914    0.2283 C.3       1 <0>        -0.1230
      5 C5         -2.1282   -0.0207   -1.1330 C.3       1 <0>         0.1313
      6 H1         -1.6851   -0.6777   -1.8815 H         1 <0>         0.1086
      7 C6         -3.6099   -0.2824   -1.0488 C.2       1 <0>         0.5152
      8 O1         -4.3837    0.6443   -0.9325 O.2       1 <0>        -0.4988
      9 N1         -4.0752   -1.5461   -1.1028 N.am      1 <0>        -0.7389
     10 C7         -5.5187   -1.7948   -1.1283 C.3       1 <0>         0.1185
     11 C8         -5.7756   -3.3018   -1.1894 C.3       1 <0>        -0.1294
     12 C9         -7.2832   -3.5615   -1.2160 C.3       1 <0>        -0.1314
     13 C10        -7.5401   -5.0685   -1.2771 C.3       1 <0>         0.0930
     14 N2         -8.9836   -5.3171   -1.3026 N.pl3     1 <0>        -0.6914
     15 C11        -9.4558   -6.5998   -1.3574 C.cat     1 <0>         0.7403
     16 N3        -10.7683   -6.8258   -1.3806 N.pl3     1 <0>        -0.7969
     17 N4         -8.6032   -7.6226   -1.3874 N.pl3     1 <0>        -0.7943
     18 N5         -1.8996    1.3758   -1.5123 N.am      1 <0>        -0.6857
     19 C12        -0.7853    1.7164   -2.1895 C.2       1 <0>         0.5493
     20 O2         -0.0162    0.8565   -2.5634 O.2       1 <0>        -0.5428
     21 C13        -0.4950    3.1660   -2.4823 C.3       1 <0>        -0.0439
     22 H2         -0.0537    3.7346   -1.6637 H         1 <0>         0.1435
     23 C14        -1.4374    3.9033   -3.4358 C.3       1 <0>        -0.0395
     24 H3         -1.6209    4.9617   -3.2508 H         1 <0>         0.1207
     25 O3         -0.1143    3.5128   -3.8152 O.3       1 <0>        -0.3217
     26 C15        -2.5934    3.1310   -4.0173 C.2       1 <0>         0.5042
     27 O4         -3.4773    2.7151   -3.2876 O.co2     1 <0>        -0.6593
     28 O5         -2.6449    2.9221   -5.2173 O.co2     1 <0>        -0.6715
     29 H4         -0.7698   -3.6433   -0.1159 H         1 <0>         0.0548
     30 H5         -1.1709   -2.4987   -1.4187 H         1 <0>         0.0557
     31 H6          0.2648   -2.2237   -0.4031 H         1 <0>         0.0638
     32 H7         -2.6512   -2.0843    0.4828 H         1 <0>         0.0725
     33 H8         -0.0721   -1.7166    2.0735 H         1 <0>         0.0579
     34 H9         -1.7194   -1.4407    2.6888 H         1 <0>         0.0543
     35 H10        -1.2034   -3.0817    2.2315 H         1 <0>         0.0537
     36 H11        -1.9908    0.2972    0.9932 H         1 <0>         0.0726
     37 H12        -0.4310   -0.0130    0.1938 H         1 <0>         0.0828
     38 H13        -3.4542   -2.2910   -1.1247 H         1 <0>         0.3993
     39 H14        -5.9740   -1.3848   -0.2268 H         1 <0>         0.0696
     40 H15        -5.9543   -1.3161   -2.0054 H         1 <0>         0.0719
     41 H16        -5.3203   -3.7118   -2.0909 H         1 <0>         0.0788
     42 H17        -5.3399   -3.7805   -0.3123 H         1 <0>         0.0771
     43 H18        -7.7385   -3.1515   -0.3146 H         1 <0>         0.0858
     44 H19        -7.7188   -3.0828   -2.0931 H         1 <0>         0.0875
     45 H20        -7.0848   -5.4785   -2.1786 H         1 <0>         0.0942
     46 H21        -7.1044   -5.5472   -0.4000 H         1 <0>         0.0933
     47 H22        -9.6045   -4.5722   -1.2807 H         1 <0>         0.4369
     48 H23       -11.3892   -6.0809   -1.3587 H         1 <0>         0.4409
     49 H24        -7.6475   -7.4580   -1.3705 H         1 <0>         0.4403
     50 H25        -8.9381   -8.5322   -1.4263 H         1 <0>         0.4394
     51 H26        -2.5503    2.0552   -1.2760 H         1 <0>         0.4236
     52 H27       -11.1031   -7.7354   -1.4194 H         1 <0>         0.4397
@<TRIPOS>BOND
     1    1    2 1
     2    1   29 1
     3    1   30 1
     4    1   31 1
     5    2    3 1
     6    2    4 1
     7    2   32 1
     8    3   33 1
     9    3   34 1
    10    3   35 1
    11    4    5 1
    12    4   36 1
    13    4   37 1
    14    5    6 1
    15    5    7 1
    16    5   18 1
    17    7    8 2
    18    7    9 am
    19    9   10 1
    20    9   38 1
    21   10   11 1
    22   10   39 1
    23   10   40 1
    24   11   12 1
    25   11   41 1
    26   11   42 1
    27   12   13 1
    28   12   43 1
    29   12   44 1
    30   13   14 1
    31   13   45 1
    32   13   46 1
    33   14   15 1
    34   14   47 1
    35   15   16 2
    36   15   17 1
    37   16   48 1
    38   16   52 1
    39   17   49 1
    40   17   50 1
    41   18   19 am
    42   18   51 1
    43   19   20 2
    44   19   21 1
    45   21   22 1
    46   21   25 1
    47   21   23 1
    48   23   24 1
    49   23   25 1
    50   23   26 1
    51   26   27 2
    52   26   28 1
@<TRIPOS>MOLECULE
ZINC02153450
   48    51     0     0     0
SMALL
USER_CHARGES

@<TRIPOS>ATOM
      1 C1         -0.0165    1.3673    0.0096 C.2       1 <0>        -0.1631
      2 C2          1.1834    2.0446    0.0017 C.2       1 <0>        -0.0039
      3 C3          2.3422    1.3379   -0.0131 C.2       1 <0>        -0.7633
      4 S1          1.7540   -0.3476   -0.0166 S.3       1 <0>         0.2278
      5 C4          0.0021   -0.0041    0.0020 C.2       1 <0>        -0.0562
      6 C5         -1.1286   -0.9476    0.0082 C.2       1 <0>        -0.0561
      7 C6         -1.1100   -2.3190    0.0062 C.2       1 <0>        -0.1631
      8 C7         -2.3099   -2.9962    0.0131 C.2       1 <0>        -0.0039
      9 C8         -3.4688   -2.2895    0.0217 C.2       1 <0>        -0.7633
     10 S2         -2.8805   -0.6041    0.0280 S.3       1 <0>         0.2276
     11 S3         -5.1277   -2.8833    0.0312 S.o2      1 <0>         2.7229
     12 O1         -5.9332   -1.8468   -0.5128 O.2       1 <0>        -0.9393
     13 O2         -5.0939   -4.1918   -0.5220 O.2       1 <0>        -0.9369
     14 N1         -5.5786   -3.0509    1.6158 N.pl3     1 <0>        -0.9965
     15 C9         -5.3542   -4.3133    2.3378 C.3       1 <0>         0.0839
     16 C10        -4.6480   -3.9948    3.6606 C.3       1 <0>         0.0462
     17 O3         -5.3854   -2.9875    4.3572 O.3       1 <0>        -0.3730
     18 C11        -5.4670   -1.7386    3.6661 C.3       1 <0>         0.0461
     19 C12        -6.2100   -1.9398    2.3453 C.3       1 <0>         0.0831
     20 S4          4.0011    1.9317   -0.0263 S.o2      1 <0>         2.7229
     21 O4          4.7977    0.8988   -0.5901 O.2       1 <0>        -0.9394
     22 O5          3.9585    3.2438   -0.5701 O.2       1 <0>        -0.9369
     23 N2          4.4775    2.0887    1.5519 N.pl3     1 <0>        -0.9964
     24 C13         4.2648    3.3462    2.2859 C.3       1 <0>         0.0839
     25 C14         3.5799    3.0188    3.6177 C.3       1 <0>         0.0462
     26 O6          4.3284    2.0069    4.2956 O.3       1 <0>        -0.3730
     27 C15         4.3988    0.7627    3.5950 C.3       1 <0>         0.0461
     28 C16         5.1205    0.9727    2.2637 C.3       1 <0>         0.0831
     29 H1         -0.9528    1.9055    0.0258 H         1 <0>         0.1507
     30 H2          1.2017    3.1244    0.0070 H         1 <0>         0.1565
     31 H3         -0.1736   -2.8572   -0.0010 H         1 <0>         0.1508
     32 H4         -2.3281   -4.0761    0.0115 H         1 <0>         0.1565
     33 H5         -6.3105   -4.7961    2.5392 H         1 <0>         0.0902
     34 H6         -4.7284   -4.9734    1.7372 H         1 <0>         0.1011
     35 H7         -4.5958   -4.8959    4.2716 H         1 <0>         0.1104
     36 H8         -3.6400   -3.6331    3.4573 H         1 <0>         0.0559
     37 H9         -6.0041   -1.0166    4.2812 H         1 <0>         0.1110
     38 H10        -4.4620   -1.3687    3.4628 H         1 <0>         0.0556
     39 H11        -6.1507   -1.0288    1.7496 H         1 <0>         0.1004
     40 H12        -7.2539   -2.1795    2.5474 H         1 <0>         0.0904
     41 H13         5.2242    3.8277    2.4751 H         1 <0>         0.0902
     42 H14         3.6294    4.0103    1.6999 H         1 <0>         0.1011
     43 H15         3.5376    3.9158    4.2355 H         1 <0>         0.1104
     44 H16         2.5688    2.6584    3.4282 H         1 <0>         0.0559
     45 H17         4.9456    0.0366    4.1964 H         1 <0>         0.1110
     46 H18         3.3906    0.3941    3.4054 H         1 <0>         0.0556
     47 H19         5.0515    0.0658    1.6630 H         1 <0>         0.1005
     48 H20         6.1675    1.2111    2.4506 H         1 <0>         0.0904
@<TRIPOS>BOND
     1    1    5 2
     2    1    2 1
     3    1   29 1
     4    2    3 2
     5    2   30 1
     6    3    4 1
     7    3   20 1
     8    4    5 1
     9    5    6 1
    10    6   10 1
    11    6    7 2
    12    7    8 1
    13    7   31 1
    14    8    9 2
    15    8   32 1
    16    9   10 1
    17    9   11 1
    18   11   12 2
    19   11   13 2
    20   11   14 1
    21   14   19 1
    22   14   15 1
    23   15   16 1
    24   15   33 1
    25   15   34 1
    26   16   17 1
    27   16   35 1
    28   16   36 1
    29   17   18 1
    30   18   19 1
    31   18   37 1
    32   18   38 1
    33   19   39 1
    34   19   40 1
    35   20   21 2
    36   20   22 2
    37   20   23 1
    38   23   28 1
    39   23   24 1
    40   24   25 1
    41   24   41 1
    42   24   42 1
    43   25   26 1
    44   25   43 1
    45   25   44 1
    46   26   27 1
    47   27   28 1
    48   27   45 1
    49   27   46 1
    50   28   47 1
    51   28   48 1
@<TRIPOS>MOLECULE
ZINC13301583
   58    61     0     0     0
SMALL
USER_CHARGES

@<TRIPOS>ATOM
      1 C1          1.5244    1.0610   -0.2751 C.3       1 <0>        -0.1159
      2 C2          0.7352   -0.2151   -0.1343 C.ar      1 <0>        -0.0664
      3 C3         -0.0113   -0.6867   -1.1988 C.ar      1 <0>        -0.1330
      4 C4         -0.7364   -1.8572   -1.0737 C.ar      1 <0>        -0.0960
      5 C5         -0.7174   -2.5595    0.1157 C.ar      1 <0>        -0.1255
      6 C6          0.0310   -2.0886    1.1863 C.ar      1 <0>         0.1468
      7 C7          0.7626   -0.9152    1.0557 C.ar      1 <0>        -0.1447
      8 N1          0.0521   -2.7974    2.3926 N.am      1 <0>        -0.6698
      9 C8         -0.0314   -4.1425    2.3854 C.2       1 <0>         0.4946
     10 O1         -0.0283   -4.7447    1.3326 O.2       1 <0>        -0.4985
     11 C9         -0.1286   -4.8984    3.6855 C.3       1 <0>         0.0944
     12 N2         -0.2075   -6.3352    3.4103 N.am      1 <0>        -0.5239
     13 C10        -1.3953   -7.0308    3.2136 C.ar      1 <0>         0.1696
     14 C11        -2.7219   -6.6136    3.2190 C.ar      1 <0>        -0.1352
     15 C12        -3.7352   -7.5230    2.9922 C.ar      1 <0>        -0.0619
     16 C13        -3.4466   -8.8568    2.7572 C.ar      1 <0>        -0.1397
     17 C14        -2.1358   -9.2897    2.7479 C.ar      1 <0>        -0.0305
     18 C15        -1.1078   -8.3810    2.9750 C.ar      1 <0>        -0.0968
     19 C16         0.3665   -8.5112    3.0318 C.2       1 <0>         0.0870
     20 N3          1.0792   -9.5993    2.8654 N.2       1 <0>        -0.1215
     21 N4          2.4762   -9.5419    2.9534 N.am      1 <0>        -0.5510
     22 C17         3.2087  -10.6602    2.7824 C.2       1 <0>         0.5281
     23 O2          2.6582  -11.7168    2.5521 O.2       1 <0>        -0.4692
     24 C18         4.6973  -10.5990    2.8762 C.2       1 <0>         0.5163
     25 O3          5.2479   -9.5422    3.1065 O.2       1 <0>        -0.5050
     26 N5          5.4298  -11.7173    2.7052 N.am      1 <0>        -0.6902
     27 C19         6.8907  -11.6573    2.7972 C.3       1 <0>         0.1602
     28 C20         7.4653  -13.0316    2.5690 C.ar      1 <0>        -0.1173
     29 C21         7.6586  -13.8862    3.6382 C.ar      1 <0>        -0.0975
     30 C22         8.1857  -15.1469    3.4289 C.ar      1 <0>        -0.1213
     31 C23         8.5190  -15.5531    2.1503 C.ar      1 <0>        -0.1072
     32 C24         8.3248  -14.6989    1.0810 C.ar      1 <0>        -0.1212
     33 C25         7.7937  -13.4398    1.2898 C.ar      1 <0>        -0.0974
     34 C26         0.8593   -7.1463    3.3104 C.2       1 <0>         0.5475
     35 O4          2.0242   -6.8159    3.4305 O.2       1 <0>        -0.4859
     36 H1          2.5240    0.8311   -0.6440 H         1 <0>         0.0725
     37 H2          1.0210    1.7238   -0.9789 H         1 <0>         0.0692
     38 H3          1.5992    1.5510    0.6956 H         1 <0>         0.0672
     39 H4         -0.0281   -0.1393   -2.1296 H         1 <0>         0.1244
     40 H5         -1.3186   -2.2227   -1.9067 H         1 <0>         0.1269
     41 H6         -1.2843   -3.4736    0.2129 H         1 <0>         0.1324
     42 H7          1.3490   -0.5486    1.8852 H         1 <0>         0.1259
     43 H8          0.1268   -2.3206    3.2340 H         1 <0>         0.4131
     44 H9          0.7532   -4.6925    4.2923 H         1 <0>         0.1298
     45 H10        -1.0220   -4.5820    4.2238 H         1 <0>         0.1293
     46 H11        -2.9598   -5.5761    3.4015 H         1 <0>         0.1307
     47 H12        -4.7629   -7.1911    2.9984 H         1 <0>         0.1382
     48 H13        -4.2479   -9.5592    2.5813 H         1 <0>         0.1383
     49 H14        -1.9095  -10.3299    2.5655 H         1 <0>         0.1406
     50 H15         2.9163   -8.6973    3.1375 H         1 <0>         0.4213
     51 H16         4.9897  -12.5620    2.5211 H         1 <0>         0.4166
     52 H17         7.2746  -10.9728    2.0408 H         1 <0>         0.0866
     53 H18         7.1781  -11.3031    3.7872 H         1 <0>         0.0867
     54 H19         7.3982  -13.5688    4.6372 H         1 <0>         0.1255
     55 H20         8.3375  -15.8143    4.2643 H         1 <0>         0.1262
     56 H21         8.9315  -16.5378    1.9869 H         1 <0>         0.1252
     57 H22         8.5855  -15.0162    0.0821 H         1 <0>         0.1262
     58 H23         7.6385  -12.7738    0.4539 H         1 <0>         0.1255
@<TRIPOS>BOND
     1    1    2 1
     2    1   36 1
     3    1   37 1
     4    1   38 1
     5    2    7 ar
     6    2    3 ar
     7    3    4 ar
     8    3   39 1
     9    4    5 ar
    10    4   40 1
    11    5    6 ar
    12    5   41 1
    13    6    7 ar
    14    6    8 1
    15    7   42 1
    16    8    9 am
    17    8   43 1
    18    9   10 2
    19    9   11 1
    20   11   12 1
    21   11   44 1
    22   11   45 1
    23   12   34 am
    24   12   13 1
    25   13   18 ar
    26   13   14 ar
    27   14   15 ar
    28   14   46 1
    29   15   16 ar
    30   15   47 1
    31   16   17 ar
    32   16   48 1
    33   17   18 ar
    34   17   49 1
    35   18   19 1
    36   19   20 2
    37   19   34 1
    38   20   21 1
    39   21   22 am
    40   21   50 1
    41   22   23 2
    42   22   24 1
    43   24   25 2
    44   24   26 am
    45   26   27 1
    46   26   51 1
    47   27   28 1
    48   27   52 1
    49   27   53 1
    50   28   33 ar
    51   28   29 ar
    52   29   30 ar
    53   29   54 1
    54   30   31 ar
    55   30   55 1
    56   31   32 ar
    57   31   56 1
    58   32   33 ar
    59   32   57 1
    60   33   58 1
    61   34   35 2
@<TRIPOS>MOLECULE
ZINC13301583
   58    61     0     0     0
SMALL
USER_CHARGES

@<TRIPOS>ATOM
      1 C1          0.3986    1.2044    0.3877 C.3       1 <0>        -0.1160
      2 C2         -0.2997   -0.1137    0.6023 C.ar      1 <0>        -0.0666
      3 C3         -1.2279   -0.5619   -0.3198 C.ar      1 <0>        -0.1326
      4 C4         -1.8704   -1.7709   -0.1268 C.ar      1 <0>        -0.0963
      5 C5         -1.5867   -2.5351    0.9883 C.ar      1 <0>        -0.1246
      6 C6         -0.6553   -2.0880    1.9159 C.ar      1 <0>         0.1469
      7 C7         -0.0078   -0.8755    1.7165 C.ar      1 <0>        -0.1439
      8 N1         -0.3660   -2.8596    3.0468 N.am      1 <0>        -0.6702
      9 C8         -0.3804   -4.2049    2.9665 C.2       1 <0>         0.4939
     10 O1         -0.5493   -4.7466    1.8945 O.2       1 <0>        -0.4984
     11 C9         -0.1868   -5.0361    4.2085 C.3       1 <0>         0.0985
     12 N2         -0.2436   -6.4575    3.8586 N.am      1 <0>        -0.5280
     13 C10        -1.4100   -7.2145    3.8443 C.ar      1 <0>         0.1817
     14 C11        -2.7303   -6.8824    4.1280 C.ar      1 <0>        -0.1329
     15 C12        -3.7205   -7.8397    4.0370 C.ar      1 <0>        -0.0590
     16 C13        -3.4147   -9.1378    3.6638 C.ar      1 <0>        -0.1337
     17 C14        -2.1098   -9.4863    3.3784 C.ar      1 <0>        -0.0504
     18 C15        -1.1051   -8.5287    3.4668 C.ar      1 <0>        -0.1599
     19 C16         0.3572   -8.5690    3.2352 C.2       1 <0>         0.0870
     20 N3          1.0792   -9.5993    2.8654 N.2       1 <0>        -0.1196
     21 N4          0.4532  -10.7971    2.4965 N.am      1 <0>        -0.5535
     22 C17         1.1947  -11.8899    2.2272 C.2       1 <0>         0.5247
     23 O2          2.4046  -11.8363    2.3044 O.2       1 <0>        -0.4627
     24 C18         0.5277  -13.1662    1.8341 C.2       1 <0>         0.5189
     25 O3         -0.6823  -13.2198    1.7570 O.2       1 <0>        -0.5120
     26 N5          1.2692  -14.2589    1.5649 N.am      1 <0>        -0.6884
     27 C19         0.6146  -15.5115    1.1791 C.3       1 <0>         0.1605
     28 C20         1.6593  -16.5699    0.9352 C.ar      1 <0>        -0.1187
     29 C21         2.2016  -16.7278   -0.3265 C.ar      1 <0>        -0.0972
     30 C22         3.1599  -17.6986   -0.5503 C.ar      1 <0>        -0.1211
     31 C23         3.5762  -18.5112    0.4877 C.ar      1 <0>        -0.1067
     32 C24         3.0346  -18.3526    1.7495 C.ar      1 <0>        -0.1213
     33 C25         2.0794  -17.3789    1.9743 C.ar      1 <0>        -0.0973
     34 C26         0.8240   -7.1933    3.5054 C.2       1 <0>         0.5977
     35 O4          1.9718   -6.7976    3.4248 O.2       1 <0>        -0.4573
     36 H1          1.3109    1.0430   -0.1865 H         1 <0>         0.0727
     37 H2         -0.2599    1.8797   -0.1586 H         1 <0>         0.0691
     38 H3          0.6498    1.6438    1.3531 H         1 <0>         0.0673
     39 H4         -1.4517    0.0340   -1.1923 H         1 <0>         0.1243
     40 H5         -2.5950   -2.1179   -0.8485 H         1 <0>         0.1267
     41 H6         -2.0891   -3.4792    1.1387 H         1 <0>         0.1311
     42 H7          0.7203   -0.5270    2.4340 H         1 <0>         0.1262
     43 H8         -0.1551   -2.4263    3.8886 H         1 <0>         0.4133
     44 H9          0.7836   -4.8091    4.6500 H         1 <0>         0.1321
     45 H10        -0.9749   -4.8066    4.9257 H         1 <0>         0.1300
     46 H11        -2.9813   -5.8735    4.4204 H         1 <0>         0.1327
     47 H12        -4.7434   -7.5739    4.2592 H         1 <0>         0.1403
     48 H13        -4.1979   -9.8783    3.5964 H         1 <0>         0.1401
     49 H14        -1.8701  -10.4985    3.0879 H         1 <0>         0.1261
     50 H15        -0.5139  -10.8400    2.4348 H         1 <0>         0.4055
     51 H16         2.2363  -14.2161    1.6266 H         1 <0>         0.4175
     52 H17        -0.0506  -15.8353    1.9796 H         1 <0>         0.0872
     53 H18         0.0372  -15.3541    0.2681 H         1 <0>         0.0873
     54 H19         1.8764  -16.0930   -1.1375 H         1 <0>         0.1257
     55 H20         3.5831  -17.8226   -1.5362 H         1 <0>         0.1264
     56 H21         4.3244  -19.2701    0.3126 H         1 <0>         0.1253
     57 H22         3.3596  -18.9876    2.5604 H         1 <0>         0.1263
     58 H23         1.6589  -17.2525    2.9610 H         1 <0>         0.1255
@<TRIPOS>BOND
     1    1    2 1
     2    1   36 1
     3    1   37 1
     4    1   38 1
     5    2    7 ar
     6    2    3 ar
     7    3    4 ar
     8    3   39 1
     9    4    5 ar
    10    4   40 1
    11    5    6 ar
    12    5   41 1
    13    6    7 ar
    14    6    8 1
    15    7   42 1
    16    8    9 am
    17    8   43 1
    18    9   10 2
    19    9   11 1
    20   11   12 1
    21   11   44 1
    22   11   45 1
    23   12   34 am
    24   12   13 1
    25   13   18 ar
    26   13   14 ar
    27   14   15 ar
    28   14   46 1
    29   15   16 ar
    30   15   47 1
    31   16   17 ar
    32   16   48 1
    33   17   18 ar
    34   17   49 1
    35   18   19 1
    36   19   20 2
    37   19   34 1
    38   20   21 1
    39   21   22 am
    40   21   50 1
    41   22   23 2
    42   22   24 1
    43   24   25 2
    44   24   26 am
    45   26   27 1
    46   26   51 1
    47   27   28 1
    48   27   52 1
    49   27   53 1
    50   28   33 ar
    51   28   29 ar
    52   29   30 ar
    53   29   54 1
    54   30   31 ar
    55   30   55 1
    56   31   32 ar
    57   31   56 1
    58   32   33 ar
    59   32   57 1
    60   33   58 1
    61   34   35 2
@<TRIPOS>MOLECULE
ZINC13466523
   45    46     0     0     0
SMALL
USER_CHARGES

@<TRIPOS>ATOM
      1 C1         -0.0187    1.5258    0.0104 C.3       1 <0>        -0.1525
      2 C2          0.0021   -0.0041    0.0020 C.3       1 <0>        -0.1163
      3 C3          0.7421   -0.5109    1.2415 C.3       1 <0>        -0.0737
      4 C4          0.7625   -2.0177    1.2333 C.2       1 <0>         0.1955
      5 C5          1.8390   -2.6816    0.7194 C.2       1 <0>        -0.2941
      6 C6          1.8356   -4.0875    0.7224 C.2       1 <0>         0.5301
      7 N1          0.7658   -4.7330    1.2343 N.am      1 <0>        -0.6143
      8 C7         -0.2801   -4.0176    1.7335 C.2       1 <0>         0.3572
      9 N2         -0.2663   -2.6985    1.7317 N.2       1 <0>        -0.5455
     10 S1         -1.6722   -4.8683    2.3990 S.3       1 <0>         0.0802
     11 C8         -2.7861   -3.5389    2.9303 C.3       1 <0>        -0.1421
     12 C9         -4.0339   -4.1373    3.5267 C.2       1 <0>         0.5346
     13 O1         -4.1595   -5.3421    3.5874 O.2       1 <0>        -0.5164
     14 N3         -5.0105   -3.3338    3.9927 N.am      1 <0>        -0.7201
     15 C10        -6.2235   -3.9155    4.5725 C.3       1 <0>         0.1373
     16 C11        -7.1631   -2.7942    5.0206 C.3       1 <0>        -0.1130
     17 S2         -8.6651   -3.5146    5.7386 S.3       1 <0>        -0.2156
     18 C12        -9.6596   -2.0735    6.2127 C.3       1 <0>        -0.0069
     19 C13       -10.9533   -2.5374    6.8310 C.2       1 <0>        -0.0129
     20 C14       -11.1598   -2.7738    8.1390 C.2       1 <0>        -0.1771
     21 C15       -12.5050   -3.1878    8.2730 C.2       1 <0>        -0.2164
     22 C16       -13.0401   -3.1797    7.0389 C.2       1 <0>        -0.0244
     23 O2        -12.0973   -2.7793    6.1703 O.3       1 <0>        -0.1707
     24 O3          2.7811   -4.7124    0.2707 O.2       1 <0>        -0.5325
     25 H1          1.0039    1.9031    0.0027 H         1 <0>         0.0570
     26 H2         -0.5459    1.8868   -0.8726 H         1 <0>         0.0580
     27 H3         -0.5289    1.8773    0.9072 H         1 <0>         0.0564
     28 H4         -1.0205   -0.3814    0.0098 H         1 <0>         0.0666
     29 H5          0.5123   -0.3556   -0.8948 H         1 <0>         0.0651
     30 H6          1.7647   -0.1336    1.2338 H         1 <0>         0.0880
     31 H7          0.2319   -0.1594    2.1383 H         1 <0>         0.0879
     32 H8          2.6794   -2.1358    0.3168 H         1 <0>         0.1571
     33 H9         -2.2859   -2.9225    3.6773 H         1 <0>         0.1337
     34 H10        -3.0531   -2.9235    2.0711 H         1 <0>         0.1334
     35 H11        -4.9101   -2.3702    3.9442 H         1 <0>         0.4060
     36 H12        -6.7238   -4.5319    3.8255 H         1 <0>         0.0837
     37 H13        -5.9565   -4.5309    5.4317 H         1 <0>         0.0839
     38 H14        -6.6628   -2.1778    5.7676 H         1 <0>         0.0926
     39 H15        -7.4301   -2.1788    4.1615 H         1 <0>         0.0923
     40 H16        -9.1069   -1.4723    6.9347 H         1 <0>         0.1127
     41 H17        -9.8742   -1.4733    5.3285 H         1 <0>         0.1014
     42 H18       -10.4366   -2.6682    8.9341 H         1 <0>         0.1520
     43 H19       -13.0066   -3.4590    9.1903 H         1 <0>         0.1527
     44 H20       -14.0565   -3.4460    6.7895 H         1 <0>         0.2071
     45 H21         0.7421   -5.7026    1.2463 H         1 <0>         0.4218
@<TRIPOS>BOND
     1    1    2 1
     2    1   25 1
     3    1   26 1
     4    1   27 1
     5    2    3 1
     6    2   28 1
     7    2   29 1
     8    3   30 1
     9    3   31 1
    10    3    4 1
    11    4    5 2
    12    4    9 1
    13    5    6 1
    14    5   32 1
    15    6    7 am
    16    6   24 2
    17    7    8 1
    18    7   45 1
    19    8   10 1
    20    8    9 2
    21   10   11 1
    22   11   12 1
    23   11   33 1
    24   11   34 1
    25   12   13 2
    26   12   14 am
    27   14   15 1
    28   14   35 1
    29   15   16 1
    30   15   36 1
    31   15   37 1
    32   16   17 1
    33   16   38 1
    34   16   39 1
    35   17   18 1
    36   18   19 1
    37   18   40 1
    38   18   41 1
    39   19   23 1
    40   19   20 2
    41   20   21 1
    42   20   42 1
    43   21   22 2
    44   21   43 1
    45   22   23 1
    46   22   44 1
@<TRIPOS>MOLECULE
ZINC08398793
   58    61     0     0     0
SMALL
USER_CHARGES

@<TRIPOS>ATOM
      1 C1         -0.0178    1.4608    0.0101 C.3       1 <0>         0.0759
      2 N1          0.0021   -0.0041    0.0020 N.am      1 <0>        -0.5408
      3 C2         -1.1363   -0.8027    0.0031 C.ar      1 <0>         0.1583
      4 C3         -2.4895   -0.4822    0.0113 C.ar      1 <0>        -0.1345
      5 C4         -3.4388   -1.4841    0.0104 C.ar      1 <0>        -0.0667
      6 C5         -3.0590   -2.8157    0.0018 C.ar      1 <0>        -0.1400
      7 C6         -1.7203   -3.1531   -0.0059 C.ar      1 <0>        -0.0351
      8 C7         -0.7565   -2.1509   -0.0060 C.ar      1 <0>        -0.0977
      9 C8          0.7249   -2.1683   -0.0132 C.2       1 <0>         0.0654
     10 N2          1.5109   -3.2170   -0.0230 N.2       1 <0>        -0.1180
     11 N3          2.9019   -3.0499   -0.0286 N.am      1 <0>        -0.5746
     12 C9          3.7102   -4.1283   -0.0387 C.2       1 <0>         0.5298
     13 O1          3.2336   -5.2432   -0.0429 O.2       1 <0>        -0.4921
     14 C10         5.2064   -3.9485   -0.0448 C.3       1 <0>        -0.1341
     15 C11         5.8848   -5.3199   -0.0560 C.3       1 <0>        -0.1060
     16 C12         7.4039   -5.1373   -0.0622 C.3       1 <0>        -0.1060
     17 C13         8.0823   -6.5087   -0.0733 C.3       1 <0>        -0.1341
     18 C14         9.5785   -6.3289   -0.0794 C.2       1 <0>         0.5298
     19 O2         10.0552   -5.2140   -0.0752 O.2       1 <0>        -0.4921
     20 N4         10.3868   -7.4073   -0.0895 N.am      1 <0>        -0.5746
     21 N5         11.7778   -7.2402   -0.0952 N.2       1 <0>        -0.1181
     22 C15        12.5639   -8.2890   -0.1050 C.2       1 <0>         0.0653
     23 C16        14.0453   -8.3063   -0.1061 C.ar      1 <0>        -0.0979
     24 C17        15.0091   -7.3043   -0.0985 C.ar      1 <0>        -0.0348
     25 C18        16.3478   -7.6417   -0.1021 C.ar      1 <0>        -0.1403
     26 C19        16.7276   -8.9733   -0.1133 C.ar      1 <0>        -0.0663
     27 C20        15.7783   -9.9751   -0.1214 C.ar      1 <0>        -0.1356
     28 C21        14.4250   -9.6545   -0.1174 C.ar      1 <0>         0.1586
     29 N6         13.2867  -10.4531   -0.1233 N.am      1 <0>        -0.5410
     30 C22        12.1660   -9.7115   -0.1108 C.2       1 <0>         0.5411
     31 O3         11.0258  -10.1364   -0.1079 O.2       1 <0>        -0.5004
     32 C23        13.3065  -11.9179   -0.1353 C.3       1 <0>         0.0785
     33 C24         1.1227   -0.7457   -0.0131 C.2       1 <0>         0.5415
     34 O4          2.2629   -0.3207   -0.0222 O.2       1 <0>        -0.5015
     35 H1          1.0048    1.8381    0.0023 H         1 <0>         0.0943
     36 H2         -0.5450    1.8219   -0.8730 H         1 <0>         0.0779
     37 H3         -0.5280    1.8123    0.9069 H         1 <0>         0.0781
     38 H4         -2.7982    0.5527    0.0187 H         1 <0>         0.1334
     39 H5         -4.4878   -1.2271    0.0168 H         1 <0>         0.1374
     40 H6         -3.8107   -3.5911    0.0015 H         1 <0>         0.1369
     41 H7         -1.4228   -4.1913   -0.0119 H         1 <0>         0.1386
     42 H8          3.2833   -2.1580   -0.0253 H         1 <0>         0.4098
     43 H9          5.5016   -3.3899   -0.9330 H         1 <0>         0.1049
     44 H10         5.5101   -3.4002    0.8469 H         1 <0>         0.1049
     45 H11         5.5896   -5.8785    0.8322 H         1 <0>         0.0769
     46 H12         5.5812   -5.8682   -0.9477 H         1 <0>         0.0769
     47 H13         7.6991   -4.5787   -0.9503 H         1 <0>         0.0769
     48 H14         7.7076   -4.5890    0.8296 H         1 <0>         0.0769
     49 H15         7.7871   -7.0673    0.8148 H         1 <0>         0.1049
     50 H16         7.7786   -7.0570   -0.9651 H         1 <0>         0.1049
     51 H17        10.0055   -8.2992   -0.0929 H         1 <0>         0.4098
     52 H18        14.7118   -6.2660   -0.0901 H         1 <0>         0.1387
     53 H19        17.0996   -6.8664   -0.0966 H         1 <0>         0.1370
     54 H20        17.7766   -9.2304   -0.1162 H         1 <0>         0.1374
     55 H21        16.0869  -11.0100   -0.1305 H         1 <0>         0.1333
     56 H22        13.3121  -12.2897    0.8893 H         1 <0>         0.0732
     57 H23        12.4212  -12.2891   -0.6517 H         1 <0>         0.0881
     58 H24        14.2010  -12.2649   -0.6526 H         1 <0>         0.0865
@<TRIPOS>BOND
     1    1    2 1
     2    1   35 1
     3    1   36 1
     4    1   37 1
     5    2   33 am
     6    2    3 1
     7    3    8 ar
     8    3    4 ar
     9    4    5 ar
    10    4   38 1
    11    5    6 ar
    12    5   39 1
    13    6    7 ar
    14    6   40 1
    15    7    8 ar
    16    7   41 1
    17    8    9 1
    18    9   10 2
    19    9   33 1
    20   10   11 1
    21   11   12 am
    22   11   42 1
    23   12   13 2
    24   12   14 1
    25   14   15 1
    26   14   43 1
    27   14   44 1
    28   15   16 1
    29   15   45 1
    30   15   46 1
    31   16   17 1
    32   16   47 1
    33   16   48 1
    34   17   18 1
    35   17   49 1
    36   17   50 1
    37   18   19 2
    38   18   20 am
    39   20   21 1
    40   20   51 1
    41   21   22 2
    42   22   30 1
    43   22   23 1
    44   23   28 ar
    45   23   24 ar
    46   24   25 ar
    47   24   52 1
    48   25   26 ar
    49   25   53 1
    50   26   27 ar
    51   26   54 1
    52   27   28 ar
    53   27   55 1
    54   28   29 1
    55   29   30 am
    56   29   32 1
    57   30   31 2
    58   32   56 1
    59   32   57 1
    60   32   58 1
    61   33   34 2
@<TRIPOS>MOLECULE
ZINC08398793
   58    61     0     0     0
SMALL
USER_CHARGES

@<TRIPOS>ATOM
      1 C1         -0.0423    1.4478   -0.2405 C.3       1 <0>         0.0794
      2 N1         -0.0072   -0.0091   -0.0899 N.am      1 <0>        -0.5461
      3 C2         -1.1187   -0.7935    0.1985 C.ar      1 <0>         0.1733
      4 C3         -2.4533   -0.4632    0.4077 C.ar      1 <0>        -0.1323
      5 C4         -3.3765   -1.4513    0.6835 C.ar      1 <0>        -0.0636
      6 C5         -2.9887   -2.7787    0.7559 C.ar      1 <0>        -0.1369
      7 C6         -1.6682   -3.1256    0.5516 C.ar      1 <0>        -0.0559
      8 C7         -0.7309   -2.1374    0.2722 C.ar      1 <0>        -0.1587
      9 C8          0.7266   -2.1673    0.0081 C.2       1 <0>         0.0669
     10 N2          1.5109   -3.2170   -0.0230 N.2       1 <0>        -0.1159
     11 N3          0.9644   -4.5031    0.0779 N.am      1 <0>        -0.5777
     12 C9          1.7762   -5.5750    0.1694 C.2       1 <0>         0.5262
     13 O1          2.9795   -5.4264    0.1643 O.2       1 <0>        -0.4853
     14 C10         1.1882   -6.9584    0.2779 C.3       1 <0>        -0.1337
     15 C11         2.3174   -7.9868    0.3677 C.3       1 <0>        -0.1076
     16 C12         1.7205   -9.3913    0.4779 C.3       1 <0>        -0.1051
     17 C13         2.8497  -10.4198    0.5677 C.3       1 <0>        -0.1348
     18 C14         2.2618  -11.8031    0.6762 C.2       1 <0>         0.5303
     19 O2          1.0585  -11.9517    0.6812 O.2       1 <0>        -0.4929
     20 N4          3.0736  -12.8751    0.7677 N.am      1 <0>        -0.5747
     21 N5          2.5270  -14.1611    0.8686 N.2       1 <0>        -0.1185
     22 C15         3.3165  -15.2036    0.9575 C.2       1 <0>         0.0661
     23 C16         2.9221  -16.6277    1.0644 C.ar      1 <0>        -0.0982
     24 C17         1.6920  -17.2745    1.1032 C.ar      1 <0>        -0.0347
     25 C18         1.6447  -18.6501    1.2096 C.ar      1 <0>        -0.1404
     26 C19         2.8186  -19.3815    1.2773 C.ar      1 <0>        -0.0661
     27 C20         4.0445  -18.7484    1.2400 C.ar      1 <0>        -0.1356
     28 C21         4.1120  -17.3635    1.1326 C.ar      1 <0>         0.1588
     29 N6          5.1951  -16.4933    1.0751 N.am      1 <0>        -0.5409
     30 C22         4.7936  -15.2154    0.9665 C.2       1 <0>         0.5409
     31 O3          5.5182  -14.2407    0.8920 O.2       1 <0>        -0.5002
     32 C23         6.5968  -16.9166    1.1210 C.3       1 <0>         0.0784
     33 C24         1.1020   -0.7568   -0.2187 C.2       1 <0>         0.5876
     34 O4          2.2180   -0.3446   -0.4739 O.2       1 <0>        -0.4653
     35 H1          0.9589    1.8136   -0.4686 H         1 <0>         0.0968
     36 H2         -0.7197    1.7129   -1.0522 H         1 <0>         0.0780
     37 H3         -0.3920    1.9006    0.6873 H         1 <0>         0.0782
     38 H4         -2.7678    0.5686    0.3545 H         1 <0>         0.1355
     39 H5         -4.4112   -1.1868    0.8448 H         1 <0>         0.1392
     40 H6         -3.7200   -3.5433    0.9728 H         1 <0>         0.1381
     41 H7         -1.3644   -4.1604    0.6085 H         1 <0>         0.1216
     42 H8          0.0017   -4.6220    0.0819 H         1 <0>         0.3932
     43 H9          0.5682   -7.0205    1.1722 H         1 <0>         0.1044
     44 H10         0.5785   -7.1641   -0.6019 H         1 <0>         0.1051
     45 H11         2.9374   -7.9247   -0.5266 H         1 <0>         0.0777
     46 H12         2.9271   -7.7811    1.2475 H         1 <0>         0.0773
     47 H13         1.1005   -9.4534    1.3722 H         1 <0>         0.0767
     48 H14         1.1108   -9.5970   -0.4019 H         1 <0>         0.0769
     49 H15         3.4697  -10.3576   -0.3267 H         1 <0>         0.1051
     50 H16         3.4594  -10.2140    1.4475 H         1 <0>         0.1050
     51 H17         4.0363  -12.7562    0.7636 H         1 <0>         0.4100
     52 H18         0.7770  -16.7030    1.0507 H         1 <0>         0.1387
     53 H19         0.6912  -19.1564    1.2403 H         1 <0>         0.1370
     54 H20         2.7745  -20.4574    1.3604 H         1 <0>         0.1374
     55 H21         4.9531  -19.3297    1.2939 H         1 <0>         0.1334
     56 H22         6.9540  -17.1011    0.1079 H         1 <0>         0.0733
     57 H23         7.1983  -16.1326    1.5811 H         1 <0>         0.0882
     58 H24         6.6812  -17.8311    1.7082 H         1 <0>         0.0866
@<TRIPOS>BOND
     1    1    2 1
     2    1   35 1
     3    1   36 1
     4    1   37 1
     5    2   33 am
     6    2    3 1
     7    3    8 ar
     8    3    4 ar
     9    4    5 ar
    10    4   38 1
    11    5    6 ar
    12    5   39 1
    13    6    7 ar
    14    6   40 1
    15    7    8 ar
    16    7   41 1
    17    8    9 1
    18    9   10 2
    19    9   33 1
    20   10   11 1
    21   11   12 am
    22   11   42 1
    23   12   13 2
    24   12   14 1
    25   14   15 1
    26   14   43 1
    27   14   44 1
    28   15   16 1
    29   15   45 1
    30   15   46 1
    31   16   17 1
    32   16   47 1
    33   16   48 1
    34   17   18 1
    35   17   49 1
    36   17   50 1
    37   18   19 2
    38   18   20 am
    39   20   21 1
    40   20   51 1
    41   21   22 2
    42   22   30 1
    43   22   23 1
    44   23   28 ar
    45   23   24 ar
    46   24   25 ar
    47   24   52 1
    48   25   26 ar
    49   25   53 1
    50   26   27 ar
    51   26   54 1
    52   27   28 ar
    53   27   55 1
    54   28   29 1
    55   29   30 am
    56   29   32 1
    57   30   31 2
    58   32   56 1
    59   32   57 1
    60   32   58 1
    61   33   34 2
@<TRIPOS>MOLECULE
ZINC03120342
   48    49     0     0     0
SMALL
USER_CHARGES
2-[2-(4-chlorophenyl)sulfonylethylsulfanyl]-N-(4-propylsulfonyl-3-thienyl)-acetamide
@<TRIPOS>ATOM
      1 C1         -5.3900    0.1504    3.0105 C.3       1 <0>        -0.1468
      2 C2         -5.3020   -0.4745    1.6168 C.3       1 <0>        -0.1196
      3 C3         -3.9805   -1.2336    1.4808 C.3       1 <0>        -0.6103
      4 S1         -3.8762   -1.9746   -0.1717 S.o2      1 <0>         2.4976
      5 O1         -3.7563   -0.9579   -1.1573 O.2       1 <0>        -0.9293
      6 O2         -4.8450   -3.0051   -0.3081 O.2       1 <0>        -0.9266
      7 C4         -2.3248   -2.8097   -0.1964 C.2       1 <0>        -0.7126
      8 C5         -2.2716   -4.1590   -0.3105 C.2       1 <0>        -0.0423
      9 S2         -0.5136   -4.4667   -0.2772 S.3       1 <0>         0.1172
     10 C6          0.0372   -2.7759   -0.1208 C.2       1 <0>        -0.1943
     11 C7         -1.1401   -2.0963   -0.1045 C.2       1 <0>         0.1511
     12 N1         -1.1558   -0.6938    0.0094 N.am      1 <0>        -0.6605
     13 C8          0.0005   -0.0021   -0.0222 C.2       1 <0>         0.5398
     14 O3          1.0599   -0.5925   -0.0501 O.2       1 <0>        -0.4876
     15 C9         -0.0226    1.5047   -0.0230 C.3       1 <0>        -0.1421
     16 S3          1.6776    2.1355   -0.0691 S.3       1 <0>        -0.1410
     17 C10         1.4771    3.9383   -0.0653 C.3       1 <0>        -0.1089
     18 C11         2.8539    4.6047   -0.1028 C.3       1 <0>        -0.5936
     19 S4          2.6533    6.4076   -0.0990 S.o2      1 <0>         2.5038
     20 O4          2.0641    6.8370   -1.3187 O.2       1 <0>        -0.9253
     21 O5          2.1303    6.8392    1.1497 O.2       1 <0>        -0.9261
     22 C12         4.2950    7.0459   -0.1436 C.ar      1 <0>        -0.6614
     23 C13         4.9688    7.3025    1.0359 C.ar      1 <0>        -0.0091
     24 C14         6.2587    7.7979    1.0015 C.ar      1 <0>        -0.1308
     25 C15         6.8714    8.0475   -0.2136 C.ar      1 <0>         0.0183
     26 C16         6.1945    7.7958   -1.3937 C.ar      1 <0>        -0.1306
     27 C17         4.9067    7.2951   -1.3581 C.ar      1 <0>        -0.0089
     28 Cl1         8.4891    8.6759   -0.2575 Cl        1 <0>        -0.0496
     29 H1         -4.5583    0.8405    3.1525 H         1 <0>         0.0598
     30 H2         -6.3314    0.6912    3.1074 H         1 <0>         0.0674
     31 H3         -5.3430   -0.6353    3.7646 H         1 <0>         0.0616
     32 H4         -5.3489    0.3111    0.8627 H         1 <0>         0.0827
     33 H5         -6.1337   -1.1646    1.4748 H         1 <0>         0.0849
     34 H6         -3.9336   -2.0193    2.2348 H         1 <0>         0.1442
     35 H7         -3.1488   -0.5436    1.6227 H         1 <0>         0.1276
     36 H8         -3.0835   -4.8661   -0.3956 H         1 <0>         0.2140
     37 H9          1.0447   -2.3923   -0.0560 H         1 <0>         0.2278
     38 H10        -1.9989   -0.2248    0.1106 H         1 <0>         0.4060
     39 H11        -0.5656    1.8594   -0.8990 H         1 <0>         0.1263
     40 H12        -0.5179    1.8609    0.8803 H         1 <0>         0.1218
     41 H13         0.9026    4.2418   -0.9405 H         1 <0>         0.1040
     42 H14         0.9503    4.2434    0.8388 H         1 <0>         0.1032
     43 H15         3.4284    4.3012    0.7723 H         1 <0>         0.1483
     44 H16         3.3807    4.2996   -1.0070 H         1 <0>         0.1487
     45 H17         4.4888    7.1118    1.9843 H         1 <0>         0.1537
     46 H18         6.7866    7.9942    1.9230 H         1 <0>         0.1470
     47 H19         6.6724    7.9901   -2.3425 H         1 <0>         0.1471
     48 H20         4.3783    7.0982   -2.2792 H         1 <0>         0.1538
@<TRIPOS>BOND
     1    1    2 1
     2    1   29 1
     3    1   30 1
     4    1   31 1
     5    2    3 1
     6    2   32 1
     7    2   33 1
     8    3    4 1
     9    3   34 1
    10    3   35 1
    11    4    5 2
    12    4    6 2
    13    4    7 1
    14    7   11 1
    15    7    8 2
    16    8    9 1
    17    8   36 1
    18    9   10 1
    19   10   11 2
    20   10   37 1
    21   11   12 1
    22   12   13 am
    23   12   38 1
    24   13   14 2
    25   13   15 1
    26   15   16 1
    27   15   39 1
    28   15   40 1
    29   16   17 1
    30   17   18 1
    31   17   41 1
    32   17   42 1
    33   18   19 1
    34   18   43 1
    35   18   44 1
    36   19   20 2
    37   19   21 2
    38   19   22 1
    39   22   27 ar
    40   22   23 ar
    41   23   24 ar
    42   23   45 1
    43   24   25 ar
    44   24   46 1
    45   25   26 ar
    46   25   28 1
    47   26   27 ar
    48   26   47 1
    49   27   48 1
@<TRIPOS>MOLECULE
ZINC02940388
   43    44     0     0     0
SMALL
USER_CHARGES

@<TRIPOS>ATOM
      1 C1          1.5244    1.0610   -0.2751 C.3       1 <0>        -0.1158
      2 C2          0.7352   -0.2151   -0.1343 C.ar      1 <0>        -0.0667
      3 C3         -0.0113   -0.6867   -1.1988 C.ar      1 <0>        -0.1351
      4 C4         -0.7364   -1.8572   -1.0737 C.ar      1 <0>        -0.0965
      5 C5         -0.7174   -2.5595    0.1157 C.ar      1 <0>        -0.1270
      6 C6          0.0310   -2.0886    1.1863 C.ar      1 <0>         0.1476
      7 C7          0.7626   -0.9152    1.0557 C.ar      1 <0>        -0.1469
      8 N1          0.0521   -2.7974    2.3926 N.am      1 <0>        -0.6738
      9 C8         -0.0314   -4.1425    2.3854 C.2       1 <0>         0.5156
     10 O1         -0.0283   -4.7447    1.3326 O.2       1 <0>        -0.5202
     11 C9         -0.1286   -4.8984    3.6855 C.3       1 <0>        -0.1249
     12 C10        -0.2110   -6.3989    3.3981 C.3       1 <0>        -0.1202
     13 C11        -0.3082   -7.1548    4.6982 C.2       1 <0>         0.5324
     14 O2         -0.3113   -6.5525    5.7513 O.2       1 <0>        -0.4987
     15 N2         -0.3917   -8.4999    4.6910 N.am      1 <0>        -0.5870
     16 N3         -0.4821   -9.2026    5.8997 N.2       1 <0>        -0.1997
     17 C12        -0.5625  -10.4981    5.8927 C.2       1 <0>         0.0998
     18 C13        -0.6575  -11.2373    7.1642 C.ar      1 <0>        -0.0725
     19 C14        -0.7384  -12.6317    7.1613 C.ar      1 <0>        -0.0667
     20 C15        -0.8267  -13.3177    8.3555 C.ar      1 <0>        -0.0508
     21 C16        -0.8360  -12.6285    9.5574 C.ar      1 <0>        -0.0769
     22 C17        -0.7569  -11.2489    9.5723 C.ar      1 <0>        -0.1392
     23 C18        -0.6614  -10.5453    8.3828 C.ar      1 <0>         0.1527
     24 O3         -0.5780   -9.1897    8.3973 O.3       1 <0>        -0.4698
     25 Cl1        -0.9272  -15.0508    8.3517 Cl        1 <0>        -0.0605
     26 H1          2.5240    0.8311   -0.6440 H         1 <0>         0.0722
     27 H2          1.0210    1.7238   -0.9789 H         1 <0>         0.0688
     28 H3          1.5992    1.5510    0.6956 H         1 <0>         0.0670
     29 H4         -0.0281   -0.1393   -2.1296 H         1 <0>         0.1236
     30 H5         -1.3186   -2.2227   -1.9067 H         1 <0>         0.1263
     31 H6         -1.2843   -3.4736    0.2129 H         1 <0>         0.1332
     32 H7          1.3490   -0.5486    1.8852 H         1 <0>         0.1253
     33 H8          0.1268   -2.3206    3.2340 H         1 <0>         0.4136
     34 H9          0.7532   -4.6925    4.2923 H         1 <0>         0.1085
     35 H10        -1.0220   -4.5820    4.2238 H         1 <0>         0.1094
     36 H11        -1.0928   -6.6048    2.7913 H         1 <0>         0.1080
     37 H12         0.6825   -6.7153    2.8598 H         1 <0>         0.1081
     38 H13        -0.3892   -8.9815    3.8490 H         1 <0>         0.3879
     39 H14        -0.5597  -11.0343    4.9552 H         1 <0>         0.1245
     40 H15        -0.7322  -13.1721    6.2262 H         1 <0>         0.1435
     41 H16        -0.9057  -13.1725   10.4878 H         1 <0>         0.1413
     42 H17        -0.7650  -10.7186   10.5131 H         1 <0>         0.1439
     43 H18        -1.4349   -8.7426    8.3677 H         1 <0>         0.3958
@<TRIPOS>BOND
     1    1    2 1
     2    1   26 1
     3    1   27 1
     4    1   28 1
     5    2    7 ar
     6    2    3 ar
     7    3    4 ar
     8    3   29 1
     9    4    5 ar
    10    4   30 1
    11    5    6 ar
    12    5   31 1
    13    6    7 ar
    14    6    8 1
    15    7   32 1
    16    8    9 am
    17    8   33 1
    18    9   10 2
    19    9   11 1
    20   11   12 1
    21   11   34 1
    22   11   35 1
    23   12   13 1
    24   12   36 1
    25   12   37 1
    26   13   14 2
    27   13   15 am
    28   15   16 1
    29   15   38 1
    30   16   17 2
    31   17   18 1
    32   17   39 1
    33   18   23 ar
    34   18   19 ar
    35   19   20 ar
    36   19   40 1
    37   20   21 ar
    38   20   25 1
    39   21   22 ar
    40   21   41 1
    41   22   23 ar
    42   22   42 1
    43   23   24 1
    44   24   43 1
@<TRIPOS>MOLECULE
ZINC13154116
   44    47     0     0     0
SMALL
USER_CHARGES
N'-[[5-[(E)-(3-oxo-5,6-dihydroimidazo[2,1-b]thiazol-2-ylidene)methyl]-2-furyl]methyl]-N-phenyl-oxamide
@<TRIPOS>ATOM
      1 C1         -3.3985    2.7460   -8.1521 C.ar      1 <0>        -0.1281
      2 C2         -3.3214    3.5503   -7.0298 C.ar      1 <0>        -0.1019
      3 C3         -2.5303    3.1746   -5.9621 C.ar      1 <0>        -0.1186
      4 C4         -1.8110    1.9873   -6.0165 C.ar      1 <0>         0.1333
      5 C5         -1.8862    1.1844   -7.1479 C.ar      1 <0>        -0.1370
      6 C6         -2.6838    1.5634   -8.2097 C.ar      1 <0>        -0.1012
      7 N1         -1.0091    1.6043   -4.9383 N.am      1 <0>        -0.6423
      8 C7         -1.3982    1.8801   -3.6777 C.2       1 <0>         0.5098
      9 O1         -2.4037    2.5312   -3.4817 O.2       1 <0>        -0.4963
     10 C8         -0.5922    1.3847   -2.5221 C.2       1 <0>         0.5146
     11 O2          0.4131    0.7338   -2.7181 O.2       1 <0>        -0.5110
     12 N2         -0.9813    1.6606   -1.2615 N.am      1 <0>        -0.6947
     13 C9         -0.1906    1.1747   -0.1280 C.3       1 <0>         0.1990
     14 C10        -0.8359    1.6159    1.1605 C.2       1 <0>        -0.0142
     15 C11        -1.7669    0.9206    1.8495 C.2       1 <0>        -0.1895
     16 C12        -2.0992    1.6807    2.9820 C.2       1 <0>        -0.1425
     17 C13        -1.3346    2.8281    2.9229 C.2       1 <0>        -0.0191
     18 O3         -0.5739    2.7596    1.8105 O.3       1 <0>        -0.1020
     19 C14        -1.3425    3.8846    3.8637 C.2       1 <0>         0.0848
     20 C15        -0.6155    5.0125    3.6276 C.2       1 <0>        -0.2182
     21 C16         0.3531    5.2881    2.5633 C.2       1 <0>         0.5453
     22 O4          0.6133    4.4498    1.7193 O.2       1 <0>        -0.4570
     23 N3          0.9425    6.4962    2.5443 N.am      1 <0>        -0.6083
     24 C17         0.6173    7.4054    3.5265 C.2       1 <0>         0.3153
     25 N4          1.2295    8.5442    3.4449 N.2       1 <0>        -0.4673
     26 C18         2.1308    8.5497    2.2886 C.3       1 <0>         0.0254
     27 C19         1.9467    7.1586    1.6628 C.3       1 <0>         0.0872
     28 S1         -0.5813    6.5485    4.5364 S.3       1 <0>         0.1183
     29 H1         -4.0180    3.0422   -8.9857 H         1 <0>         0.1259
     30 H2         -3.8808    4.4732   -6.9882 H         1 <0>         0.1281
     31 H3         -2.4705    3.8032   -5.0859 H         1 <0>         0.1382
     32 H4         -1.3249    0.2630   -7.1953 H         1 <0>         0.1288
     33 H5         -2.7460    0.9378   -9.0878 H         1 <0>         0.1294
     34 H6         -0.1724    1.1398   -5.0969 H         1 <0>         0.4240
     35 H7         -1.7848    2.1809   -1.1049 H         1 <0>         0.4175
     36 H8         -0.1447    0.0860   -0.1571 H         1 <0>         0.1103
     37 H9          0.8184    1.5826   -0.1873 H         1 <0>         0.0970
     38 H10        -2.1786   -0.0406    1.5795 H         1 <0>         0.1589
     39 H11        -2.8127    1.4187    3.7493 H         1 <0>         0.1638
     40 H12        -1.9248    3.7971    4.7691 H         1 <0>         0.1821
     41 H13         1.8406    9.3275    1.5822 H         1 <0>         0.1111
     42 H14         3.1626    8.6926    2.6096 H         1 <0>         0.1113
     43 H15         1.5646    7.2447    0.6457 H         1 <0>         0.0948
     44 H16         2.8876    6.6083    1.6712 H         1 <0>         0.0952
@<TRIPOS>BOND
     1    1    6 ar
     2    1    2 ar
     3    1   29 1
     4    2    3 ar
     5    2   30 1
     6    3    4 ar
     7    3   31 1
     8    4    5 ar
     9    4    7 1
    10    5    6 ar
    11    5   32 1
    12    6   33 1
    13    7    8 am
    14    7   34 1
    15    8    9 2
    16    8   10 1
    17   10   11 2
    18   10   12 am
    19   12   13 1
    20   12   35 1
    21   13   14 1
    22   13   36 1
    23   13   37 1
    24   14   18 1
    25   14   15 2
    26   15   16 1
    27   15   38 1
    28   16   17 2
    29   16   39 1
    30   17   18 1
    31   17   19 1
    32   19   20 2
    33   19   40 1
    34   20   28 1
    35   20   21 1
    36   21   22 2
    37   21   23 am
    38   23   27 1
    39   23   24 1
    40   24   25 2
    41   24   28 1
    42   25   26 1
    43   26   27 1
    44   26   41 1
    45   26   42 1
    46   27   43 1
    47   27   44 1
@<TRIPOS>MOLECULE
ZINC18189751
   41    43     0     0     0
SMALL
USER_CHARGES

@<TRIPOS>ATOM
      1 C1          1.4092    1.8434   -1.2659 C.3       1 <0>        -0.1208
      2 C2          1.1311    0.3779   -1.0513 C.ar      1 <0>        -0.0339
      3 C3          1.0711   -0.4799   -2.1336 C.ar      1 <0>        -0.1476
      4 C4          0.8160   -1.8242   -1.9367 C.ar      1 <0>        -0.0181
      5 C5          0.6214   -2.3107   -0.6575 C.ar      1 <0>        -0.6689
      6 C6          0.6824   -1.4530    0.4249 C.ar      1 <0>         0.0037
      7 C7          0.9417   -0.1095    0.2283 C.ar      1 <0>        -0.1431
      8 S1          0.2952   -4.0239   -0.4067 S.o2      1 <0>         2.7222
      9 O1         -0.3898   -4.1296    0.8339 O.2       1 <0>        -0.9475
     10 O2         -0.2512   -4.5156   -1.6228 O.2       1 <0>        -0.9683
     11 N1          1.7566   -4.7764   -0.2060 N.pl3     1 <0>        -0.9749
     12 N2          2.5996   -4.3997    0.8477 N.2       1 <0>        -0.2584
     13 C8          3.7450   -4.9894    1.0050 C.2       1 <0>         0.2812
     14 C9          4.1681   -6.0794    0.0542 C.3       1 <0>        -0.1477
     15 C10         4.6315   -4.5933    2.1130 C.2       1 <0>        -0.4590
     16 C11         5.5208   -3.4921    1.9665 C.2       1 <0>         0.4361
     17 O3          5.5728   -2.8522    0.9295 O.2       1 <0>        -0.5414
     18 C12         6.3772   -3.1552    3.1203 C.ar      1 <0>        -0.2070
     19 C13         7.2771   -2.0913    3.0637 C.ar      1 <0>        -0.0398
     20 C14         8.0611   -1.8042    4.1595 C.ar      1 <0>        -0.1678
     21 C15         7.9571   -2.5680    5.3127 C.ar      1 <0>        -0.0759
     22 C16         7.0716   -3.6224    5.3805 C.ar      1 <0>        -0.1537
     23 C17         6.2710   -3.9286    4.2863 C.ar      1 <0>         0.1636
     24 O4          5.3991   -4.9572    4.3400 O.3       1 <0>        -0.2681
     25 C18         4.6065   -5.2841    3.3132 C.2       1 <0>         0.4750
     26 O5          3.7586   -6.3238    3.4495 O.3       1 <0>        -0.6199
     27 H1          2.4849    2.0172   -1.2367 H         1 <0>         0.0777
     28 H2          1.0180    2.1492   -2.2363 H         1 <0>         0.0691
     29 H3          0.9259    2.4239   -0.4800 H         1 <0>         0.0702
     30 H4          1.2231   -0.0998   -3.1330 H         1 <0>         0.1286
     31 H5          0.7684   -2.4943   -2.7823 H         1 <0>         0.1365
     32 H6          0.5300   -1.8330    1.4242 H         1 <0>         0.1429
     33 H7          0.9930    0.5600    1.0743 H         1 <0>         0.1305
     34 H8          2.0290   -5.4780   -0.8179 H         1 <0>         0.3916
     35 H9          4.6318   -5.6341   -0.8260 H         1 <0>         0.0752
     36 H10         4.8840   -6.7356    0.5492 H         1 <0>         0.0803
     37 H11         3.2946   -6.6570   -0.2482 H         1 <0>         0.0594
     38 H12         7.3591   -1.4962    2.1661 H         1 <0>         0.1326
     39 H13         8.7598   -0.9815    4.1204 H         1 <0>         0.1236
     40 H14         8.5764   -2.3345    6.1661 H         1 <0>         0.1281
     41 H15         7.0000   -4.2104    6.2836 H         1 <0>         0.1338
@<TRIPOS>BOND
     1    1    2 1
     2    1   27 1
     3    1   28 1
     4    1   29 1
     5    2    7 ar
     6    2    3 ar
     7    3    4 ar
     8    3   30 1
     9    4    5 ar
    10    4   31 1
    11    5    6 ar
    12    5    8 1
    13    6    7 ar
    14    6   32 1
    15    7   33 1
    16    8    9 2
    17    8   10 2
    18    8   11 1
    19   11   12 1
    20   11   34 1
    21   12   13 2
    22   13   14 1
    23   13   15 1
    24   14   35 1
    25   14   36 1
    26   14   37 1
    27   15   25 2
    28   15   16 1
    29   16   17 2
    30   16   18 1
    31   18   23 ar
    32   18   19 ar
    33   19   20 ar
    34   19   38 1
    35   20   21 ar
    36   20   39 1
    37   21   22 ar
    38   21   40 1
    39   22   23 ar
    40   22   41 1
    41   23   24 1
    42   24   25 1
    43   25   26 1
@<TRIPOS>MOLECULE
ZINC18189751
   40    42     0     0     0
SMALL
USER_CHARGES

@<TRIPOS>ATOM
      1 C1          0.0325    1.5136    0.3382 C.3       1 <0>        -0.1096
      2 C2          0.0626    0.0088    0.4130 C.ar      1 <0>        -0.0684
      3 C3         -0.2283   -0.7450   -0.7086 C.ar      1 <0>        -0.1502
      4 C4         -0.2007   -2.1254   -0.6399 C.ar      1 <0>        -0.0230
      5 C5          0.1183   -2.7520    0.5502 C.ar      1 <0>        -0.5965
      6 C6          0.4102   -1.9982    1.6716 C.ar      1 <0>        -0.0233
      7 C7          0.3868   -0.6178    1.6018 C.ar      1 <0>        -0.1504
      8 S1          0.1524   -4.5114    0.6380 S.o2      1 <0>         2.5680
      9 O1         -0.0542   -4.8541    2.0015 O.2       1 <0>        -1.0497
     10 O2         -0.6902   -4.9864   -0.4030 O.2       1 <0>        -1.0494
     11 N1          1.6911   -4.9909    0.2574 N.2       1 <0>        -0.9699
     12 N2          2.0177   -6.3533    0.2461 N.2       1 <0>        -0.2727
     13 C8          3.2242   -6.7293   -0.0524 C.2       1 <0>         0.1673
     14 C9          4.2732   -5.7002   -0.3865 C.3       1 <0>        -0.0901
     15 C10         3.5673   -8.1607   -0.0643 C.2       1 <0>        -0.3855
     16 C11         3.5206   -8.8866   -1.2522 C.2       1 <0>         0.3345
     17 C12         3.8745  -10.3107   -1.1995 C.ar      1 <0>        -0.1558
     18 C13         3.8500  -11.0998   -2.3533 C.ar      1 <0>        -0.0445
     19 C14         4.1844  -12.4230   -2.2771 C.ar      1 <0>        -0.1733
     20 C15         4.5472  -12.9873   -1.0629 C.ar      1 <0>        -0.0945
     21 C16         4.5774  -12.2250    0.0864 C.ar      1 <0>        -0.1576
     22 C17         4.2419  -10.8778    0.0325 C.ar      1 <0>         0.1558
     23 O3          4.2680  -10.1196    1.1493 O.3       1 <0>        -0.3050
     24 C18         3.9548   -8.8153    1.1319 C.2       1 <0>         0.5090
     25 O4          4.0002   -8.1795    2.1694 O.2       1 <0>        -0.5287
     26 O5          3.1605   -8.2991   -2.4158 O.3       1 <0>        -0.6489
     27 H1          1.0176    1.8830    0.0530 H         1 <0>         0.0682
     28 H2         -0.7016    1.8258   -0.4046 H         1 <0>         0.0625
     29 H3         -0.2402    1.9204    1.3119 H         1 <0>         0.0624
     30 H4         -0.4776   -0.2555   -1.6385 H         1 <0>         0.1197
     31 H5         -0.4287   -2.7143   -1.5161 H         1 <0>         0.1349
     32 H6          0.6592   -2.4877    2.6015 H         1 <0>         0.1346
     33 H7          0.6184   -0.0288    2.4770 H         1 <0>         0.1196
     34 H8          4.7261   -5.3311    0.5337 H         1 <0>         0.0342
     35 H9          5.0412   -6.1543   -1.0127 H         1 <0>         0.0287
     36 H10         3.8111   -4.8710   -0.9221 H         1 <0>         0.0549
     37 H11         3.5676  -10.6657   -3.3010 H         1 <0>         0.1318
     38 H12         4.1657  -13.0332   -3.1679 H         1 <0>         0.1155
     39 H13         4.8084  -14.0342   -1.0168 H         1 <0>         0.1191
     40 H14         4.8611  -12.6746    1.0265 H         1 <0>         0.1264
@<TRIPOS>BOND
     1    1    2 1
     2    1   27 1
     3    1   28 1
     4    1   29 1
     5    2    7 ar
     6    2    3 ar
     7    3    4 ar
     8    3   30 1
     9    4    5 ar
    10    4   31 1
    11    5    6 ar
    12    5    8 1
    13    6    7 ar
    14    6   32 1
    15    7   33 1
    16    8    9 2
    17    8   10 2
    18    8   11 1
    19   11   12 1
    20   12   13 2
    21   13   14 1
    22   13   15 1
    23   14   34 1
    24   14   35 1
    25   14   36 1
    26   15   24 1
    27   15   16 2
    28   16   17 1
    29   16   26 1
    30   17   22 ar
    31   17   18 ar
    32   18   19 ar
    33   18   37 1
    34   19   20 ar
    35   19   38 1
    36   20   21 ar
    37   20   39 1
    38   21   22 ar
    39   21   40 1
    40   22   23 1
    41   23   24 1
    42   24   25 2
@<TRIPOS>MOLECULE
ZINC18189751
   40    42     0     0     0
SMALL
USER_CHARGES

@<TRIPOS>ATOM
      1 C1         -0.0068    1.2590   -2.0604 C.3       1 <0>        -0.1086
      2 C2          0.0201   -0.2232   -1.7896 C.ar      1 <0>        -0.0689
      3 C3          0.2397   -1.1113   -2.8259 C.ar      1 <0>        -0.1506
      4 C4          0.2644   -2.4709   -2.5776 C.ar      1 <0>        -0.0224
      5 C5          0.0699   -2.9424   -1.2927 C.ar      1 <0>        -0.5924
      6 C6         -0.1489   -2.0543   -0.2563 C.ar      1 <0>        -0.0220
      7 C7         -0.1693   -0.6945   -0.5039 C.ar      1 <0>        -0.1501
      8 S1          0.1002   -4.6755   -0.9763 S.o2      1 <0>         2.5527
      9 O1         -0.6500   -4.8845    0.2123 O.2       1 <0>        -1.0545
     10 O2         -0.2206   -5.3179   -2.2026 O.2       1 <0>        -1.0567
     11 N1          1.6666   -5.0818   -0.6249 N.2       1 <0>        -0.9254
     12 N2          1.9959   -6.4107   -0.3278 N.2       1 <0>        -0.2789
     13 C8          3.2235   -6.7291   -0.0524 C.2       1 <0>         0.1516
     14 C9          3.5587   -8.1327    0.3818 C.3       1 <0>        -0.0593
     15 C10         4.2895   -5.7183   -0.1642 C.2       1 <0>        -0.3989
     16 C11         4.9174   -5.4679   -1.4163 C.2       1 <0>         0.4158
     17 O3          4.5932   -6.0776   -2.4217 O.2       1 <0>        -0.5545
     18 C12         5.9762   -4.4405   -1.4495 C.ar      1 <0>        -0.1982
     19 C13         6.6436   -4.1311   -2.6344 C.ar      1 <0>        -0.0457
     20 C14         7.6268   -3.1661   -2.6296 C.ar      1 <0>        -0.1804
     21 C15         7.9519   -2.5054   -1.4540 C.ar      1 <0>        -0.0914
     22 C16         7.2996   -2.8027   -0.2765 C.ar      1 <0>        -0.1629
     23 C17         6.3042   -3.7728   -0.2597 C.ar      1 <0>         0.1653
     24 O4          5.6569   -4.0725    0.8859 O.3       1 <0>        -0.2812
     25 C18         4.6901   -4.9948    0.9469 C.2       1 <0>         0.4412
     26 O5          4.0888   -5.2316    2.1305 O.3       1 <0>        -0.6389
     27 H1          0.9995    1.6653   -1.9586 H         1 <0>         0.0682
     28 H2         -0.3698    1.4369   -3.0727 H         1 <0>         0.0618
     29 H3         -0.6696    1.7470   -1.3458 H         1 <0>         0.0619
     30 H4          0.3917   -0.7429   -3.8297 H         1 <0>         0.1189
     31 H5          0.4353   -3.1648   -3.3873 H         1 <0>         0.1334
     32 H6         -0.3012   -2.4227    0.7475 H         1 <0>         0.1341
     33 H7         -0.3365   -0.0004    0.3065 H         1 <0>         0.1193
     34 H8          3.8761   -8.7147   -0.4834 H         1 <0>         0.0411
     35 H9          4.3643   -8.1035    1.1154 H         1 <0>         0.0490
     36 H10         2.6780   -8.5952    0.8275 H         1 <0>         0.0436
     37 H11         6.3915   -4.6452   -3.5501 H         1 <0>         0.1271
     38 H12         8.1467   -2.9233   -3.5445 H         1 <0>         0.1141
     39 H13         8.7242   -1.7505   -1.4612 H         1 <0>         0.1178
     40 H14         7.5618   -2.2821    0.6326 H         1 <0>         0.1247
@<TRIPOS>BOND
     1    1    2 1
     2    1   27 1
     3    1   28 1
     4    1   29 1
     5    2    7 ar
     6    2    3 ar
     7    3    4 ar
     8    3   30 1
     9    4    5 ar
    10    4   31 1
    11    5    6 ar
    12    5    8 1
    13    6    7 ar
    14    6   32 1
    15    7   33 1
    16    8    9 2
    17    8   10 2
    18    8   11 1
    19   11   12 1
    20   12   13 2
    21   13   14 1
    22   13   15 1
    23   14   34 1
    24   14   35 1
    25   14   36 1
    26   15   25 2
    27   15   16 1
    28   16   17 2
    29   16   18 1
    30   18   23 ar
    31   18   19 ar
    32   19   20 ar
    33   19   37 1
    34   20   21 ar
    35   20   38 1
    36   21   22 ar
    37   21   39 1
    38   22   23 ar
    39   22   40 1
    40   23   24 1
    41   24   25 1
    42   25   26 1
@<TRIPOS>MOLECULE
ZINC18189751
   40    42     0     0     0
SMALL
USER_CHARGES

@<TRIPOS>ATOM
      1 C1          0.0324    1.5136    0.3378 C.3       1 <0>        -0.1095
      2 C2          0.0625    0.0087    0.4126 C.ar      1 <0>        -0.0685
      3 C3         -0.2282   -0.7450   -0.7091 C.ar      1 <0>        -0.1501
      4 C4         -0.2006   -2.1253   -0.6405 C.ar      1 <0>        -0.0231
      5 C5          0.1182   -2.7520    0.5497 C.ar      1 <0>        -0.5963
      6 C6          0.4098   -1.9983    1.6711 C.ar      1 <0>        -0.0234
      7 C7          0.3864   -0.6179    1.6014 C.ar      1 <0>        -0.1504
      8 S1          0.1523   -4.5115    0.6374 S.o2      1 <0>         2.5675
      9 O1         -0.0546   -4.8542    2.0008 O.2       1 <0>        -1.0501
     10 O2         -0.6901   -4.9864   -0.4038 O.2       1 <0>        -1.0495
     11 N1          1.6911   -4.9910    0.2571 N.2       1 <0>        -0.9699
     12 N2          2.0176   -6.3533    0.2457 N.2       1 <0>        -0.2738
     13 C8          3.2235   -6.7291   -0.0524 C.2       1 <0>         0.1707
     14 C9          4.2726   -5.7000   -0.3862 C.3       1 <0>        -0.0904
     15 C10         3.5669   -8.1618   -0.0644 C.2       1 <0>        -0.4008
     16 C11         3.9447   -8.8228    1.1378 C.2       1 <0>         0.4142
     17 O3          3.9940   -8.2270    2.2008 O.2       1 <0>        -0.5436
     18 C12         4.2738  -10.2585    1.0464 C.ar      1 <0>        -0.2007
     19 C13         4.6533  -10.9843    2.1752 C.ar      1 <0>        -0.0434
     20 C14         4.9534  -12.3234    2.0541 C.ar      1 <0>        -0.1775
     21 C15         4.8788  -12.9473    0.8174 C.ar      1 <0>        -0.0879
     22 C16         4.5053  -12.2403   -0.3057 C.ar      1 <0>        -0.1606
     23 C17         4.1980  -10.8885   -0.2052 C.ar      1 <0>         0.1650
     24 O4          3.8297  -10.1851   -1.2964 O.3       1 <0>        -0.2776
     25 C18         3.5209   -8.8847   -1.2449 C.2       1 <0>         0.4451
     26 O5          3.1574   -8.2555   -2.3809 O.3       1 <0>        -0.6272
     27 H1          1.0175    1.8830    0.0529 H         1 <0>         0.0682
     28 H2         -0.7016    1.8258   -0.4051 H         1 <0>         0.0625
     29 H3         -0.2405    1.9204    1.3115 H         1 <0>         0.0623
     30 H4         -0.4773   -0.2554   -1.6390 H         1 <0>         0.1197
     31 H5         -0.4285   -2.7142   -1.5167 H         1 <0>         0.1349
     32 H6          0.6586   -2.4878    2.6011 H         1 <0>         0.1345
     33 H7          0.6179   -0.0290    2.4767 H         1 <0>         0.1195
     34 H8          4.7253   -5.3309    0.5341 H         1 <0>         0.0341
     35 H9          5.0407   -6.1540   -1.0123 H         1 <0>         0.0281
     36 H10         3.8106   -4.8707   -0.9219 H         1 <0>         0.0545
     37 H11         4.7120  -10.4994    3.1385 H         1 <0>         0.1297
     38 H12         5.2481  -12.8896    2.9252 H         1 <0>         0.1165
     39 H13         5.1161  -13.9975    0.7334 H         1 <0>         0.1201
     40 H14         4.4515  -12.7367   -1.2633 H         1 <0>         0.1273
@<TRIPOS>BOND
     1    1    2 1
     2    1   27 1
     3    1   28 1
     4    1   29 1
     5    2    7 ar
     6    2    3 ar
     7    3    4 ar
     8    3   30 1
     9    4    5 ar
    10    4   31 1
    11    5    6 ar
    12    5    8 1
    13    6    7 ar
    14    6   32 1
    15    7   33 1
    16    8    9 2
    17    8   10 2
    18    8   11 1
    19   11   12 1
    20   12   13 2
    21   13   14 1
    22   13   15 1
    23   14   34 1
    24   14   35 1
    25   14   36 1
    26   15   25 2
    27   15   16 1
    28   16   17 2
    29   16   18 1
    30   18   23 ar
    31   18   19 ar
    32   19   20 ar
    33   19   37 1
    34   20   21 ar
    35   20   38 1
    36   21   22 ar
    37   21   39 1
    38   22   23 ar
    39   22   40 1
    40   23   24 1
    41   24   25 1
    42   25   26 1
@<TRIPOS>MOLECULE
ZINC18189751
   40    42     0     0     0
SMALL
USER_CHARGES

@<TRIPOS>ATOM
      1 C1         -0.0068    1.2588   -2.0614 C.3       1 <0>        -0.1087
      2 C2          0.0201   -0.2234   -1.7905 C.ar      1 <0>        -0.0687
      3 C3          0.2398   -1.1116   -2.8267 C.ar      1 <0>        -0.1505
      4 C4          0.2645   -2.4712   -2.5782 C.ar      1 <0>        -0.0226
      5 C5          0.0699   -2.9426   -1.2934 C.ar      1 <0>        -0.5927
      6 C6         -0.1489   -2.0544   -0.2570 C.ar      1 <0>        -0.0216
      7 C7         -0.1693   -0.6946   -0.5048 C.ar      1 <0>        -0.1501
      8 S1          0.1002   -4.6757   -0.9769 S.o2      1 <0>         2.5536
      9 O1         -0.6501   -4.8846    0.2117 O.2       1 <0>        -1.0539
     10 O2         -0.2205   -5.3182   -2.2031 O.2       1 <0>        -1.0566
     11 N1          1.6667   -5.0819   -0.6253 N.2       1 <0>        -0.9261
     12 N2          1.9959   -6.4108   -0.3281 N.2       1 <0>        -0.2777
     13 C8          3.2242   -6.7293   -0.0524 C.2       1 <0>         0.1485
     14 C9          3.5593   -8.1329    0.3820 C.3       1 <0>        -0.0593
     15 C10         4.2892   -5.7194   -0.1641 C.2       1 <0>        -0.3825
     16 C11         4.6912   -4.9925    0.9540 C.2       1 <0>         0.3318
     17 C12         5.7588   -3.9997    0.7786 C.ar      1 <0>        -0.1513
     18 C13         6.2123   -3.2348    1.8574 C.ar      1 <0>        -0.0478
     19 C14         7.2078   -2.3176    1.6673 C.ar      1 <0>        -0.1750
     20 C15         7.7702   -2.1410    0.4116 C.ar      1 <0>        -0.0995
     21 C16         7.3362   -2.8862   -0.6651 C.ar      1 <0>        -0.1588
     22 C17         6.3258   -3.8246   -0.4950 C.ar      1 <0>         0.1538
     23 O3          5.8919   -4.5616   -1.5397 O.3       1 <0>        -0.3081
     24 C18         4.9221   -5.4792   -1.4098 C.2       1 <0>         0.5089
     25 O4          4.5738   -6.1181   -2.3862 O.2       1 <0>        -0.5384
     26 O5          4.1166   -5.1941    2.1615 O.3       1 <0>        -0.6622
     27 H1          0.9995    1.6651   -1.9595 H         1 <0>         0.0683
     28 H2         -0.3697    1.4366   -3.0737 H         1 <0>         0.0619
     29 H3         -0.6697    1.7468   -1.3468 H         1 <0>         0.0620
     30 H4          0.3919   -0.7432   -3.8305 H         1 <0>         0.1190
     31 H5          0.4355   -3.1651   -3.3879 H         1 <0>         0.1335
     32 H6         -0.3013   -2.4228    0.7467 H         1 <0>         0.1341
     33 H7         -0.3366   -0.0005    0.3056 H         1 <0>         0.1193
     34 H8          3.8768   -8.7149   -0.4832 H         1 <0>         0.0410
     35 H9          4.3649   -8.1036    1.1157 H         1 <0>         0.0497
     36 H10         2.6786   -8.5953    0.8277 H         1 <0>         0.0441
     37 H11         5.7775   -3.3678    2.8370 H         1 <0>         0.1293
     38 H12         7.5587   -1.7264    2.5002 H         1 <0>         0.1130
     39 H13         8.5555   -1.4123    0.2754 H         1 <0>         0.1167
     40 H14         7.7807   -2.7402   -1.6384 H         1 <0>         0.1236
@<TRIPOS>BOND
     1    1    2 1
     2    1   27 1
     3    1   28 1
     4    1   29 1
     5    2    7 ar
     6    2    3 ar
     7    3    4 ar
     8    3   30 1
     9    4    5 ar
    10    4   31 1
    11    5    6 ar
    12    5    8 1
    13    6    7 ar
    14    6   32 1
    15    7   33 1
    16    8    9 2
    17    8   10 2
    18    8   11 1
    19   11   12 1
    20   12   13 2
    21   13   14 1
    22   13   15 1
    23   14   34 1
    24   14   35 1
    25   14   36 1
    26   15   24 1
    27   15   16 2
    28   16   17 1
    29   16   26 1
    30   17   22 ar
    31   17   18 ar
    32   18   19 ar
    33   18   37 1
    34   19   20 ar
    35   19   38 1
    36   20   21 ar
    37   20   39 1
    38   21   22 ar
    39   21   40 1
    40   22   23 1
    41   23   24 1
    42   24   25 2
@<TRIPOS>MOLECULE
ZINC18045755
   48    51     0     0     0
SMALL
USER_CHARGES

@<TRIPOS>ATOM
      1 C1          0.8660    1.4004   -1.7364 C.ar      1 <0>        -0.1197
      2 C2          1.6459    2.1194   -0.8456 C.ar      1 <0>        -0.1099
      3 C3          2.4476    1.4615    0.0730 C.ar      1 <0>         0.0686
      4 C4          2.4732    0.0717    0.1043 C.ar      1 <0>         0.1327
      5 C5          1.6840   -0.6570   -0.7971 C.ar      1 <0>        -0.0965
      6 C6          0.8791    0.0230   -1.7187 C.ar      1 <0>        -0.0786
      7 C7          1.7023   -2.1263   -0.7747 C.2       1 <0>         0.1995
      8 N1          2.4546   -2.7567    0.0859 N.2       1 <0>        -0.4494
      9 C8          2.3992   -4.1166    0.1726 C.ar      1 <0>         0.0912
     10 C9          3.6238   -4.9151    0.1770 C.ar      1 <0>        -0.0287
     11 C10         3.5172   -6.3238    0.2691 C.ar      1 <0>        -0.0245
     12 C11         4.7418   -7.1224    0.2736 C.ar      1 <0>         0.0903
     13 C12         5.9640   -6.4657    0.1871 C.ar      1 <0>        -0.1454
     14 C13         6.0171   -5.0823    0.0990 C.ar      1 <0>        -0.1078
     15 C14         4.8871   -4.3193    0.0924 C.ar      1 <0>        -0.0930
     16 N2          4.6863   -8.4823    0.3612 N.2       1 <0>        -0.4501
     17 C15         5.4350   -9.1117    1.2257 C.2       1 <0>         0.1980
     18 C16         5.3120  -10.5679    1.3815 C.ar      1 <0>        -0.0952
     19 C17         4.3958  -11.2857    0.5996 C.ar      1 <0>         0.1325
     20 C18         4.2886  -12.6630    0.7563 C.ar      1 <0>         0.0688
     21 C19         5.0842  -13.3193    1.6814 C.ar      1 <0>        -0.1104
     22 C20         5.9896  -12.6109    2.4543 C.ar      1 <0>        -0.1195
     23 C21         6.1129  -11.2468    2.3074 C.ar      1 <0>        -0.0790
     24 O1          3.4023  -13.3662    0.0015 O.3       1 <0>        -0.4859
     25 O2          3.6169  -10.6391   -0.3057 O.3       1 <0>        -0.4618
     26 C22         2.2539   -6.9197    0.3529 C.ar      1 <0>        -0.0943
     27 C23         1.1239   -6.1568    0.3463 C.ar      1 <0>        -0.1065
     28 C24         1.1773   -4.7731    0.2644 C.ar      1 <0>        -0.1453
     29 O3          3.2586   -0.5765    1.0027 O.3       1 <0>        -0.4613
     30 O4          3.2102    2.1752    0.9440 O.3       1 <0>        -0.4859
     31 H1          0.2408    1.9224   -2.4457 H         1 <0>         0.1362
     32 H2          1.6291    3.1991   -0.8675 H         1 <0>         0.1360
     33 H3          0.2686   -0.5321   -2.4156 H         1 <0>         0.1368
     34 H4          1.0933   -2.6846   -1.4703 H         1 <0>         0.1136
     35 H5          6.8802   -7.0375    0.1889 H         1 <0>         0.1241
     36 H6          6.9795   -4.5966    0.0336 H         1 <0>         0.1256
     37 H7          4.9679   -3.2447    0.0221 H         1 <0>         0.1344
     38 H8          6.1448   -8.5624    1.8264 H         1 <0>         0.1126
     39 H9          4.9977  -14.3892    1.8009 H         1 <0>         0.1359
     40 H10         6.6050  -13.1316    3.1730 H         1 <0>         0.1361
     41 H11         6.8240  -10.7007    2.9094 H         1 <0>         0.1366
     42 H12         3.7662  -13.6881   -0.8346 H         1 <0>         0.3882
     43 H13         4.0114  -10.5700   -1.1858 H         1 <0>         0.3883
     44 H14         2.1732   -7.9944    0.4232 H         1 <0>         0.1364
     45 H15         0.1615   -6.6426    0.4117 H         1 <0>         0.1259
     46 H16         0.2612   -4.2010    0.2672 H         1 <0>         0.1242
     47 H17         2.8213   -0.7634    1.8447 H         1 <0>         0.3879
     48 H18         2.7656    2.3828    1.7773 H         1 <0>         0.3883
@<TRIPOS>BOND
     1    1    6 ar
     2    1    2 ar
     3    1   31 1
     4    2    3 ar
     5    2   32 1
     6    3    4 ar
     7    3   30 1
     8    4    5 ar
     9    4   29 1
    10    5    6 ar
    11    5    7 1
    12    6   33 1
    13    7    8 2
    14    7   34 1
    15    8    9 1
    16    9   28 ar
    17    9   10 ar
    18   10   15 ar
    19   10   11 ar
    20   11   12 ar
    21   11   26 ar
    22   12   13 ar
    23   12   16 1
    24   13   14 ar
    25   13   35 1
    26   14   15 ar
    27   14   36 1
    28   15   37 1
    29   16   17 2
    30   17   18 1
    31   17   38 1
    32   18   23 ar
    33   18   19 ar
    34   19   20 ar
    35   19   25 1
    36   20   21 ar
    37   20   24 1
    38   21   22 ar
    39   21   39 1
    40   22   23 ar
    41   22   40 1
    42   23   41 1
    43   24   42 1
    44   25   43 1
    45   26   27 ar
    46   26   44 1
    47   27   28 ar
    48   27   45 1
    49   28   46 1
    50   29   47 1
    51   30   48 1
@<TRIPOS>MOLECULE
ZINC01228042
   42    44     0     0     0
SMALL
USER_CHARGES
4-[[3-chloro-4-[(2,4-dihydroxyphenyl)methyleneamino]phenyl]iminomethyl]benzene-1,3-diol
@<TRIPOS>ATOM
      1 C1         -3.4299    3.8942   -1.0147 C.ar      1 <0>        -0.1307
      2 C2         -4.6247    4.5555   -0.9957 C.ar      1 <0>        -0.1240
      3 C3         -4.9171    5.4471    0.0406 C.ar      1 <0>         0.0863
      4 C4         -3.9864    5.6590    1.0649 C.ar      1 <0>        -0.0146
      5 C5         -2.7846    4.9878    1.0484 C.ar      1 <0>        -0.0834
      6 C6         -2.4985    4.0971    0.0083 C.ar      1 <0>         0.0880
      7 N1         -1.3064    3.4294   -0.0108 N.2       1 <0>        -0.4571
      8 C7         -1.2778    2.1522   -0.2793 C.2       1 <0>         0.2037
      9 C8          0.0030    1.4348   -0.2998 C.ar      1 <0>        -0.1234
     10 C9          0.0374    0.0651   -0.5873 C.ar      1 <0>        -0.0517
     11 C10         1.2406   -0.6016   -0.6110 C.ar      1 <0>        -0.1633
     12 C11         2.4252    0.0804   -0.3506 C.ar      1 <0>         0.1479
     13 C12         2.4033    1.4378   -0.0649 C.ar      1 <0>        -0.1875
     14 C13         1.2003    2.1208   -0.0368 C.ar      1 <0>         0.1785
     15 O1          1.1772    3.4486    0.2429 O.3       1 <0>        -0.4709
     16 O2          3.6080   -0.5856   -0.3766 O.3       1 <0>        -0.4972
     17 Cl1        -4.3469    6.7660    2.3526 Cl        1 <0>        -0.0411
     18 N2         -6.1108    6.1119    0.0537 N.2       1 <0>        -0.4503
     19 C14        -7.2238    5.4589   -0.1436 C.2       1 <0>         0.2071
     20 C15        -8.4940    6.1880   -0.2487 C.ar      1 <0>        -0.1237
     21 C16        -9.6895    5.4909   -0.4603 C.ar      1 <0>        -0.0514
     22 C17       -10.8772    6.1785   -0.5582 C.ar      1 <0>        -0.1640
     23 C18       -10.8954    7.5654   -0.4477 C.ar      1 <0>         0.1480
     24 C19        -9.7169    8.2666   -0.2376 C.ar      1 <0>        -0.1881
     25 C20        -8.5159    7.5876   -0.1318 C.ar      1 <0>         0.1806
     26 O3         -7.3629    8.2717    0.0789 O.3       1 <0>        -0.4678
     27 O4        -12.0721    8.2355   -0.5456 O.3       1 <0>        -0.4975
     28 H1         -3.2056    3.2098   -1.8195 H         1 <0>         0.1305
     29 H2         -5.3432    4.3927   -1.7854 H         1 <0>         0.1335
     30 H3         -2.0639    5.1488    1.8365 H         1 <0>         0.1438
     31 H4         -2.1964    1.6232   -0.4862 H         1 <0>         0.1113
     32 H5         -0.8799   -0.4678   -0.7900 H         1 <0>         0.1391
     33 H6          1.2659   -1.6583   -0.8329 H         1 <0>         0.1377
     34 H7          3.3261    1.9619    0.1357 H         1 <0>         0.1397
     35 H8          1.0862    3.6508    1.1841 H         1 <0>         0.3950
     36 H9          4.0346   -0.5958   -1.2443 H         1 <0>         0.3980
     37 H10        -7.2103    4.3824   -0.2295 H         1 <0>         0.1115
     38 H11        -9.6794    4.4144   -0.5469 H         1 <0>         0.1387
     39 H12       -11.7989    5.6396   -0.7210 H         1 <0>         0.1374
     40 H13        -9.7375    9.3430   -0.1520 H         1 <0>         0.1393
     41 H14        -6.9136    8.5447   -0.7327 H         1 <0>         0.3939
     42 H15       -12.5261    8.3586    0.2993 H         1 <0>         0.3979
@<TRIPOS>BOND
     1    1    6 ar
     2    1    2 ar
     3    1   28 1
     4    2    3 ar
     5    2   29 1
     6    3    4 ar
     7    3   18 1
     8    4    5 ar
     9    4   17 1
    10    5    6 ar
    11    5   30 1
    12    6    7 1
    13    7    8 2
    14    8    9 1
    15    8   31 1
    16    9   14 ar
    17    9   10 ar
    18   10   11 ar
    19   10   32 1
    20   11   12 ar
    21   11   33 1
    22   12   13 ar
    23   12   16 1
    24   13   14 ar
    25   13   34 1
    26   14   15 1
    27   15   35 1
    28   16   36 1
    29   18   19 2
    30   19   20 1
    31   19   37 1
    32   20   25 ar
    33   20   21 ar
    34   21   22 ar
    35   21   38 1
    36   22   23 ar
    37   22   39 1
    38   23   24 ar
    39   23   27 1
    40   24   25 ar
    41   24   40 1
    42   25   26 1
    43   26   41 1
    44   27   42 1
@<TRIPOS>MOLECULE
ZINC02848713
   48    50     0     0     0
SMALL
USER_CHARGES

@<TRIPOS>ATOM
      1 C1         -0.0167    1.3808    0.0096 C.ar      1 <0>        -0.1361
      2 C2          1.1637    2.0924    0.0022 C.ar      1 <0>        -0.0717
      3 C3          2.3852    1.4149   -0.0131 C.ar      1 <0>        -0.1680
      4 C4          2.3998    0.0129   -0.0207 C.ar      1 <0>         0.1755
      5 C5          1.2027   -0.6865   -0.0130 C.ar      1 <0>        -0.1541
      6 C6          0.0021   -0.0041    0.0020 C.ar      1 <0>        -0.0710
      7 O1          3.5798   -0.6561   -0.0360 O.3       1 <0>        -0.4776
      8 C7          3.6521    2.1699   -0.0216 C.2       1 <0>         0.5772
      9 O2          4.7136    1.5764   -0.0349 O.2       1 <0>        -0.4812
     10 N1          3.6335    3.5175   -0.0147 N.am      1 <0>        -0.5822
     11 N2          4.8370    4.2347   -0.0228 N.2       1 <0>        -0.2211
     12 C8          4.8190    5.5334   -0.0161 C.2       1 <0>         0.1061
     13 C9          6.0842    6.2873   -0.0246 C.ar      1 <0>        -0.0400
     14 C10         7.3051    5.6047   -0.0457 C.ar      1 <0>        -0.0825
     15 C11         8.4782    6.3039   -0.0536 C.ar      1 <0>        -0.0925
     16 C12         8.4590    7.7026   -0.0411 C.ar      1 <0>        -0.0400
     17 C13         7.2380    8.3852   -0.0210 C.ar      1 <0>        -0.0825
     18 C14         6.0649    7.6861   -0.0174 C.ar      1 <0>        -0.0925
     19 C15         9.7241    8.4566   -0.0486 C.2       1 <0>         0.1061
     20 N3          9.7063    9.7552   -0.0370 N.2       1 <0>        -0.2211
     21 N4         10.9097   10.4724   -0.0442 N.am      1 <0>        -0.5821
     22 C16        10.8912   11.8199   -0.0322 C.2       1 <0>         0.5772
     23 O3          9.8297   12.4134   -0.0151 O.2       1 <0>        -0.4811
     24 C17        12.1581   12.5750   -0.0397 C.ar      1 <0>        -0.1679
     25 C18        12.1436   13.9768   -0.0214 C.ar      1 <0>         0.1754
     26 C19        13.3408   14.6763   -0.0282 C.ar      1 <0>        -0.1541
     27 C20        14.5413   13.9939   -0.0530 C.ar      1 <0>        -0.0710
     28 C21        14.5599   12.6091   -0.0716 C.ar      1 <0>        -0.1361
     29 C22        13.3796   11.8975   -0.0593 C.ar      1 <0>        -0.0717
     30 O4         10.9637   14.6458    0.0025 O.3       1 <0>        -0.4776
     31 H1         -0.9605    1.9055    0.0260 H         1 <0>         0.1348
     32 H2          1.1442    3.1722    0.0078 H         1 <0>         0.1279
     33 H3          1.2091   -1.7665   -0.0192 H         1 <0>         0.1399
     34 H4         -0.9277   -0.5535    0.0079 H         1 <0>         0.1354
     35 H5          3.9307   -0.8548    0.8430 H         1 <0>         0.3988
     36 H6          2.7869    3.9908   -0.0041 H         1 <0>         0.3853
     37 H7          3.8764    6.0604   -0.0043 H         1 <0>         0.1233
     38 H8          7.3200    4.5249   -0.0553 H         1 <0>         0.1404
     39 H9          9.4208    5.7769   -0.0691 H         1 <0>         0.1334
     40 H10         7.2232    9.4651   -0.0110 H         1 <0>         0.1404
     41 H11         5.1222    8.2131   -0.0057 H         1 <0>         0.1334
     42 H12        10.6667    7.9296   -0.0638 H         1 <0>         0.1232
     43 H13        11.7563    9.9991   -0.0578 H         1 <0>         0.3853
     44 H14        13.3345   15.7562   -0.0145 H         1 <0>         0.1400
     45 H15        15.4710   14.5434   -0.0582 H         1 <0>         0.1354
     46 H16        15.5037   12.0844   -0.0916 H         1 <0>         0.1348
     47 H17        13.3990   10.8177   -0.0694 H         1 <0>         0.1279
     48 H18        10.6330   14.8283    0.8927 H         1 <0>         0.3988
@<TRIPOS>BOND
     1    1    6 ar
     2    1    2 ar
     3    1   31 1
     4    2    3 ar
     5    2   32 1
     6    3    4 ar
     7    3    8 1
     8    4    5 ar
     9    4    7 1
    10    5    6 ar
    11    5   33 1
    12    6   34 1
    13    7   35 1
    14    8    9 2
    15    8   10 am
    16   10   11 1
    17   10   36 1
    18   11   12 2
    19   12   13 1
    20   12   37 1
    21   13   18 ar
    22   13   14 ar
    23   14   15 ar
    24   14   38 1
    25   15   16 ar
    26   15   39 1
    27   16   17 ar
    28   16   19 1
    29   17   18 ar
    30   17   40 1
    31   18   41 1
    32   19   20 2
    33   19   42 1
    34   20   21 1
    35   21   22 am
    36   21   43 1
    37   22   23 2
    38   22   24 1
    39   24   29 ar
    40   24   25 ar
    41   25   26 ar
    42   25   30 1
    43   26   27 ar
    44   26   44 1
    45   27   28 ar
    46   27   45 1
    47   28   29 ar
    48   28   46 1
    49   29   47 1
    50   30   48 1
@<TRIPOS>MOLECULE
ZINC38812326
   46    48     0     0     0
SMALL
USER_CHARGES

@<TRIPOS>ATOM
      1 C1          1.0531   -0.5000    0.3882 C.ar      1 <0>        -0.1917
      2 C2          2.1170    0.3744    0.3746 C.ar      1 <0>        -0.0453
      3 C3          3.4249   -0.1190    0.3266 C.ar      1 <0>        -0.2062
      4 C4          3.6411   -1.5083    0.2926 C.ar      1 <0>         0.2444
      5 C5          2.5530   -2.3732    0.3071 C.ar      1 <0>        -0.1862
      6 C6          1.2698   -1.8691    0.3545 C.ar      1 <0>        -0.0876
      7 N1          4.9315   -2.0120    0.2445 N.pl3     1 <0>        -0.5534
      8 N2          5.1408   -3.3887    0.0907 N.2       1 <0>        -0.2351
      9 C7          6.3504   -3.8609    0.0455 C.2       1 <0>         0.0608
     10 C8          6.5703   -5.3078   -0.1161 C.ar      1 <0>        -0.0254
     11 C9          5.4768   -6.1736   -0.2268 C.ar      1 <0>        -0.0918
     12 C10         5.6808   -7.5155   -0.3767 C.ar      1 <0>        -0.1002
     13 C11         6.9833   -8.0246   -0.4200 C.ar      1 <0>        -0.0304
     14 C12         8.0768   -7.1587   -0.3102 C.ar      1 <0>        -0.0898
     15 C13         7.8729   -5.8163   -0.1647 C.ar      1 <0>        -0.1023
     16 C14         7.2032   -9.4716   -0.5807 C.2       1 <0>         0.0645
     17 N3          8.4128   -9.9444   -0.6209 N.2       1 <0>        -0.2262
     18 N4          8.6220  -11.3212   -0.7738 N.pl3     1 <0>        -0.5592
     19 C15         9.9124  -11.8255   -0.8167 C.ar      1 <0>         0.2321
     20 C16        10.1306  -13.1882   -1.0878 C.ar      1 <0>        -0.1831
     21 C17        11.4384  -13.6824   -1.1283 C.ar      1 <0>        -0.0587
     22 C18        12.5003  -12.8348   -0.9033 C.ar      1 <0>        -0.1797
     23 C19        12.2816  -11.4920   -0.6358 C.ar      1 <0>        -0.0977
     24 C20        10.9987  -10.9863   -0.5977 C.ar      1 <0>        -0.1740
     25 C21         8.9918  -14.0871   -1.3266 C.2       1 <0>         0.5254
     26 O1          8.9465  -15.1775   -0.7731 O.co2     1 <0>        -0.6849
     27 O2          8.0894  -13.7448   -2.0788 O.co2     1 <0>        -0.6911
     28 C22         4.5658    0.8084    0.3113 C.2       1 <0>         0.5320
     29 O3          4.3732    2.0140    0.2289 O.co2     1 <0>        -0.6799
     30 O4          5.7078    0.3745    0.3809 O.co2     1 <0>        -0.6919
     31 H1          0.0441   -0.1172    0.4298 H         1 <0>         0.1102
     32 H2          1.9416    1.4397    0.4006 H         1 <0>         0.1250
     33 H3          2.7124   -3.4411    0.2812 H         1 <0>         0.1250
     34 H4          0.4280   -2.5456    0.3656 H         1 <0>         0.1123
     35 H5          5.6897   -1.4113    0.3173 H         1 <0>         0.4165
     36 H6          7.1945   -3.1921    0.1266 H         1 <0>         0.1144
     37 H7          4.4714   -5.7806   -0.1934 H         1 <0>         0.1330
     38 H8          4.8367   -8.1838   -0.4615 H         1 <0>         0.1268
     39 H9          9.0822   -7.5517   -0.3433 H         1 <0>         0.1327
     40 H10         8.7170   -5.1475   -0.0837 H         1 <0>         0.1272
     41 H11         6.3591  -10.1400   -0.6651 H         1 <0>         0.1155
     42 H12         7.8639  -11.9215   -0.8496 H         1 <0>         0.4059
     43 H13        11.6153  -14.7275   -1.3355 H         1 <0>         0.1190
     44 H14        13.5094  -13.2184   -0.9350 H         1 <0>         0.1107
     45 H15        13.1217  -10.8365   -0.4605 H         1 <0>         0.1131
     46 H16        10.8379   -9.9381   -0.3931 H         1 <0>         0.1253
@<TRIPOS>BOND
     1    1    6 ar
     2    1    2 ar
     3    1   31 1
     4    2    3 ar
     5    2   32 1
     6    3    4 ar
     7    3   28 1
     8    4    5 ar
     9    4    7 1
    10    5    6 ar
    11    5   33 1
    12    6   34 1
    13    7    8 1
    14    7   35 1
    15    8    9 2
    16    9   10 1
    17    9   36 1
    18   10   15 ar
    19   10   11 ar
    20   11   12 ar
    21   11   37 1
    22   12   13 ar
    23   12   38 1
    24   13   14 ar
    25   13   16 1
    26   14   15 ar
    27   14   39 1
    28   15   40 1
    29   16   17 2
    30   16   41 1
    31   17   18 1
    32   18   19 1
    33   18   42 1
    34   19   24 ar
    35   19   20 ar
    36   20   21 ar
    37   20   25 1
    38   21   22 ar
    39   21   43 1
    40   22   23 ar
    41   22   44 1
    42   23   24 ar
    43   23   45 1
    44   24   46 1
    45   25   26 2
    46   25   27 1
    47   28   29 2
    48   28   30 1
@<TRIPOS>MOLECULE
ZINC00680891
   40    43     0     0     0
SMALL
USER_CHARGES
2-(1-phenyltetrazol-5-yl)sulfanyl-N-(4-tetrazol-1-ylphenyl)-acetamide
@<TRIPOS>ATOM
      1 C1        -10.5658   -0.3901   -0.6399 C.ar      1 <0>        -0.1004
      2 C2        -11.2575    0.6197    0.0035 C.ar      1 <0>        -0.0994
      3 C3        -10.7275    1.8938    0.0608 C.ar      1 <0>        -0.0918
      4 C4         -9.4988    2.1602   -0.5281 C.ar      1 <0>         0.1153
      5 C5         -8.8092    1.1456   -1.1780 C.ar      1 <0>        -0.1128
      6 C6         -9.3416   -0.1280   -1.2271 C.ar      1 <0>        -0.0939
      7 N1         -8.9581    3.4527   -0.4716 N.pl3     1 <0>        -0.3094
      8 C7         -7.6497    3.7948   -0.3619 C.2       1 <0>         0.1968
      9 N2         -7.5945    5.1093   -0.3504 N.2       1 <0>        -0.3303
     10 N3         -8.7736    5.6099   -0.4404 N.2       1 <0>        -0.0228
     11 N4         -9.6554    4.6728   -0.5147 N.2       1 <0>        -0.0662
     12 S1         -6.2824    2.6880   -0.2613 S.3       1 <0>         0.1372
     13 C8         -4.9228    3.8774   -0.1482 C.3       1 <0>        -0.1689
     14 C9         -3.6141    3.1367   -0.0502 C.2       1 <0>         0.5390
     15 O1         -3.6018    1.9238   -0.0562 O.2       1 <0>        -0.4997
     16 N5         -2.4573    3.8218    0.0442 N.am      1 <0>        -0.6639
     17 C10        -1.2357    3.1388    0.0240 C.ar      1 <0>         0.1565
     18 C11        -0.1621    3.6136    0.7664 C.ar      1 <0>        -0.1184
     19 C12         1.0438    2.9426    0.7425 C.ar      1 <0>        -0.0785
     20 C13         1.1806    1.7872   -0.0153 C.ar      1 <0>         0.1158
     21 C14         0.1060    1.3095   -0.7534 C.ar      1 <0>        -0.0975
     22 C15        -1.0985    1.9830   -0.7340 C.ar      1 <0>        -0.0964
     23 N6          2.4053    1.1025   -0.0356 N.pl3     1 <0>        -0.3267
     24 C16         2.7025   -0.0263   -0.7147 C.2       1 <0>         0.2269
     25 N7          3.9493   -0.3201   -0.4528 N.2       1 <0>        -0.3272
     26 N8          4.4606    0.5462    0.3456 N.2       1 <0>        -0.0313
     27 N9          3.5879    1.4480    0.6420 N.2       1 <0>        -0.0765
     28 H1        -10.9824   -1.3856   -0.6837 H         1 <0>         0.1377
     29 H2        -12.2133    0.4119    0.4615 H         1 <0>         0.1406
     30 H3        -11.2681    2.6821    0.5635 H         1 <0>         0.1387
     31 H4         -7.8552    1.3509   -1.6409 H         1 <0>         0.1389
     32 H5         -8.8033   -0.9188   -1.7283 H         1 <0>         0.1423
     33 H6         -5.0561    4.4984    0.7377 H         1 <0>         0.1385
     34 H7         -4.9173    4.5086   -1.0369 H         1 <0>         0.1401
     35 H8         -2.4714    4.7882    0.1261 H         1 <0>         0.4209
     36 H9         -0.2697    4.5099    1.3592 H         1 <0>         0.1448
     37 H10         1.8797    3.3138    1.3168 H         1 <0>         0.1485
     38 H11         0.2126    0.4106   -1.3425 H         1 <0>         0.1416
     39 H12        -1.9345    1.6112   -1.3078 H         1 <0>         0.1517
     40 H13         2.0342   -0.5831   -1.3548 H         1 <0>         0.2402
@<TRIPOS>BOND
     1    1    6 ar
     2    1    2 ar
     3    1   28 1
     4    2    3 ar
     5    2   29 1
     6    3    4 ar
     7    3   30 1
     8    4    5 ar
     9    4    7 1
    10    5    6 ar
    11    5   31 1
    12    6   32 1
    13    7   11 1
    14    7    8 1
    15    8    9 2
    16    8   12 1
    17    9   10 1
    18   10   11 2
    19   12   13 1
    20   13   14 1
    21   13   33 1
    22   13   34 1
    23   14   15 2
    24   14   16 am
    25   16   17 1
    26   16   35 1
    27   17   22 ar
    28   17   18 ar
    29   18   19 ar
    30   18   36 1
    31   19   20 ar
    32   19   37 1
    33   20   21 ar
    34   20   23 1
    35   21   22 ar
    36   21   38 1
    37   22   39 1
    38   23   27 1
    39   23   24 1
    40   24   25 2
    41   24   40 1
    42   25   26 1
    43   26   27 2
@<TRIPOS>MOLECULE
ZINC12403599
   34    35     0     0     0
SMALL
USER_CHARGES

@<TRIPOS>ATOM
      1 C1         -0.0184    1.5028    0.0103 C.3       1 <0>        -0.1613
      2 C2          0.0021   -0.0041    0.0020 C.2       1 <0>         0.1495
      3 N1          0.0216   -0.6591    1.1227 N.2       1 <0>        -0.2022
      4 N2          0.0237    0.0348    2.3397 N.pl3     1 <0>        -0.5565
      5 C3          0.0443   -0.6555    3.5205 C.cat     1 <0>         0.5583
      6 N3          0.0463    0.0219    4.7085 N.pl3     1 <0>        -0.8134
      7 S1          0.0668   -2.3153    3.5114 S.3       1 <0>        -0.5239
      8 C4         -0.0001   -0.7339   -1.2781 C.ar      1 <0>        -0.0544
      9 C5         -0.0153   -0.0291   -2.4855 C.ar      1 <0>        -0.0858
     10 C6         -0.0169   -0.7123   -3.6804 C.ar      1 <0>        -0.1175
     11 C7         -0.0037   -2.1074   -3.6871 C.ar      1 <0>        -0.0223
     12 C8          0.0110   -2.8122   -2.4832 C.ar      1 <0>        -0.1157
     13 C9          0.0188   -2.1319   -1.2867 C.ar      1 <0>        -0.0665
     14 C10        -0.0059   -2.8418   -4.9752 C.ar      1 <0>        -0.0536
     15 C11        -0.0153   -2.1409   -6.1802 C.ar      1 <0>        -0.1079
     16 C12        -0.0173   -2.8297   -7.3760 C.ar      1 <0>        -0.1191
     17 C13        -0.0106   -4.2130   -7.3804 C.ar      1 <0>        -0.1153
     18 C14        -0.0012   -4.9139   -6.1878 C.ar      1 <0>        -0.1180
     19 C15         0.0072   -4.2357   -4.9859 C.ar      1 <0>        -0.1066
     20 H1          1.0042    1.8801    0.0026 H         1 <0>         0.0917
     21 H2         -0.5455    1.8639   -0.8728 H         1 <0>         0.0950
     22 H3         -0.5286    1.8543    0.9071 H         1 <0>         0.0675
     23 H4          0.0332    0.9918    4.7138 H         1 <0>         0.3932
     24 H5          0.0609   -0.4676    5.5458 H         1 <0>         0.4356
     25 H6         -0.0262    1.0508   -2.4806 H         1 <0>         0.1319
     26 H7         -0.0286   -0.1682   -4.6132 H         1 <0>         0.1315
     27 H8          0.0204   -3.8921   -2.4901 H         1 <0>         0.1322
     28 H9          0.0347   -2.6777   -0.3549 H         1 <0>         0.1445
     29 H10        -0.0213   -1.0609   -6.1779 H         1 <0>         0.1261
     30 H11        -0.0246   -2.2878   -8.3101 H         1 <0>         0.1250
     31 H12        -0.0129   -4.7479   -8.3186 H         1 <0>         0.1237
     32 H13         0.0040   -5.9938   -6.1973 H         1 <0>         0.1258
     33 H14         0.0190   -4.7838   -4.0554 H         1 <0>         0.1277
     34 H15         0.0105    1.0047    2.3451 H         1 <0>         0.3808
@<TRIPOS>BOND
     1    1    2 1
     2    1   20 1
     3    1   21 1
     4    1   22 1
     5    2    3 2
     6    2    8 1
     7    3    4 1
     8    4    5 2
     9    4   34 1
    10    5    6 1
    11    5    7 1
    12    6   23 1
    13    6   24 1
    14    8   13 ar
    15    8    9 ar
    16    9   10 ar
    17    9   25 1
    18   10   11 ar
    19   10   26 1
    20   11   12 ar
    21   11   14 1
    22   12   13 ar
    23   12   27 1
    24   13   28 1
    25   14   19 ar
    26   14   15 ar
    27   15   16 ar
    28   15   29 1
    29   16   17 ar
    30   16   30 1
    31   17   18 ar
    32   17   31 1
    33   18   19 ar
    34   18   32 1
    35   19   33 1
@<TRIPOS>MOLECULE
ZINC28638148
   41    42     0     0     0
SMALL
USER_CHARGES
2-cyano-N-[[4-[2-(4-fluoroanilino)-2-oxo-ethoxy]phenyl]methyleneamino]acetamide
@<TRIPOS>ATOM
      1 C1         -0.9129   -2.4015    1.3279 C.ar      1 <0>        -0.0870
      2 C2         -0.8451   -1.0992    1.7732 C.ar      1 <0>        -0.1397
      3 C3          0.2406   -0.3024    1.4333 C.ar      1 <0>         0.1455
      4 C4          1.2597   -0.8120    0.6389 C.ar      1 <0>        -0.2075
      5 C5          1.2028   -2.1147    0.1931 C.ar      1 <0>        -0.0422
      6 C6          0.1126   -2.9201    0.5329 C.ar      1 <0>        -0.1401
      7 C7          0.0448   -4.3129    0.0545 C.2       1 <0>         0.1189
      8 N1         -1.0742   -4.9673    0.1184 N.2       1 <0>        -0.2282
      9 N2         -2.2919   -4.2746    0.1135 N.am      1 <0>        -0.5934
     10 C8         -3.4468   -4.9406    0.3117 C.2       1 <0>         0.5307
     11 O1         -3.4318   -6.1398    0.4944 O.2       1 <0>        -0.4928
     12 C9         -4.7567   -4.1955    0.3065 C.3       1 <0>        -0.0398
     13 C10        -5.8599   -5.1409    0.5433 C.1       1 <0>         0.2117
     14 N3         -6.7112   -5.8705    0.7260 N.1       1 <0>        -0.4009
     15 O2          0.3033    0.9809    1.8745 O.3       1 <0>        -0.2860
     16 C11         1.4476    1.7446    1.4880 C.3       1 <0>         0.0398
     17 C12         1.3437    3.1326    2.0658 C.2       1 <0>         0.5170
     18 O3          0.3841    3.4377    2.7421 O.2       1 <0>        -0.4962
     19 N4          2.3170    4.0348    1.8312 N.am      1 <0>        -0.6815
     20 C13         2.1774    5.3505    2.2897 C.ar      1 <0>         0.1365
     21 C14         2.6826    6.4050    1.5409 C.ar      1 <0>        -0.1135
     22 C15         2.5388    7.7024    1.9921 C.ar      1 <0>        -0.1345
     23 C16         1.9014    7.9511    3.1960 C.ar      1 <0>         0.0863
     24 C17         1.4019    6.9004    3.9471 C.ar      1 <0>        -0.1338
     25 C18         1.5386    5.6020    3.4967 C.ar      1 <0>        -0.0937
     26 F1          1.7663    9.2205    3.6382 F         1 <0>        -0.1379
     27 H1         -1.7572   -3.0205    1.5933 H         1 <0>         0.1409
     28 H2         -1.6373   -0.6975    2.3877 H         1 <0>         0.1407
     29 H3          2.1001   -0.1876    0.3737 H         1 <0>         0.1350
     30 H4          1.9976   -2.5113   -0.4211 H         1 <0>         0.1383
     31 H5          0.9426   -4.7975   -0.3566 H         1 <0>         0.1909
     32 H6         -2.3054   -3.1872   -0.0521 H         1 <0>         0.4141
     33 H7         -4.7489   -3.4347    1.1009 H         1 <0>         0.1450
     34 H8         -4.8962   -3.7060   -0.6686 H         1 <0>         0.1466
     35 H9          2.3584    1.2573    1.8661 H         1 <0>         0.1018
     36 H10         1.4935    1.8067    0.3907 H         1 <0>         0.1023
     37 H11         3.2211    3.7376    1.2795 H         1 <0>         0.4393
     38 H12         3.1837    6.2111    0.6040 H         1 <0>         0.1378
     39 H13         2.9274    8.5232    1.4076 H         1 <0>         0.1412
     40 H14         0.9048    7.0965    4.8857 H         1 <0>         0.1404
     41 H15         1.1486    4.7829    4.0826 H         1 <0>         0.1480
@<TRIPOS>BOND
     1    1    6 ar
     2    1    2 ar
     3    1   27 1
     4    2    3 ar
     5    2   28 1
     6    3    4 ar
     7    3   15 1
     8    4    5 ar
     9    4   29 1
    10    5    6 ar
    11    5   30 1
    12    6    7 1
    13    7    8 2
    14    7   31 1
    15    8    9 1
    16    9   10 am
    17    9   32 1
    18   10   11 2
    19   10   12 1
    20   12   13 1
    21   12   33 1
    22   12   34 1
    23   13   14 3
    24   15   16 1
    25   16   17 1
    26   16   35 1
    27   16   36 1
    28   17   18 2
    29   17   19 am
    30   19   20 1
    31   19   37 1
    32   20   25 ar
    33   20   21 ar
    34   21   22 ar
    35   21   38 1
    36   22   23 ar
    37   22   39 1
    38   23   24 ar
    39   23   26 1
    40   24   25 ar
    41   24   40 1
    42   25   41 1
@<TRIPOS>MOLECULE
ZINC00626002
   53    57     0     0     0
SMALL
USER_CHARGES

@<TRIPOS>ATOM
      1 C1         -0.0162    1.3409    0.0094 C.2       1 <0>        -0.2188
      2 C2          1.3313    1.7689   -0.0012 C.2       1 <0>        -0.1824
      3 C3          2.0923    0.6599   -0.0144 C.2       1 <0>        -0.0349
      4 O1          1.2819   -0.4111   -0.0124 O.3       1 <0>        -0.1692
      5 C4          0.0021   -0.0041    0.0020 C.2       1 <0>        -0.0244
      6 C5          3.5989    0.6249   -0.0289 C.3       1 <0>         0.1996
      7 N1          4.1002    0.6062    1.3475 N.pl3     1 <0>        -1.1148
      8 S1          5.6762    0.1967    1.6491 S.o2      1 <0>         2.6967
      9 O2          5.8599    0.2966    3.0547 O.2       1 <0>        -0.9484
     10 O3          5.9286   -1.0033    0.9312 O.2       1 <0>        -0.9471
     11 C6          6.6868    1.4421    0.9195 C.ar      1 <0>        -0.6671
     12 C7          7.1113    1.3075   -0.3901 C.ar      1 <0>        -0.0245
     13 C8          7.9023    2.2788   -0.9677 C.ar      1 <0>        -0.1056
     14 C9          8.2770    3.4028   -0.2294 C.ar      1 <0>        -0.0146
     15 C10         7.8448    3.5293    1.0879 C.ar      1 <0>        -0.1020
     16 C11         7.0500    2.5561    1.6555 C.ar      1 <0>         0.0017
     17 C12         8.3984    4.8262    1.6255 C.3       1 <0>        -0.0468
     18 C13         9.1917    5.4400    0.4980 C.ar      1 <0>        -0.1016
     19 C14         9.1060    4.5788   -0.5925 C.ar      1 <0>        -0.0145
     20 C15         9.7586    4.9121   -1.7807 C.ar      1 <0>        -0.1060
     21 C16        10.4793    6.0852   -1.8652 C.ar      1 <0>        -0.0188
     22 C17        10.5587    6.9344   -0.7763 C.ar      1 <0>        -0.6671
     23 C18         9.9140    6.6107    0.4044 C.ar      1 <0>        -0.0040
     24 S2         11.4815    8.4308   -0.8932 S.o2      1 <0>         2.6967
     25 O4         11.8518    8.7842    0.4325 O.2       1 <0>        -0.9475
     26 O5         12.4386    8.2382   -1.9257 O.2       1 <0>        -0.9481
     27 N2         10.4429    9.6065   -1.4238 N.pl3     1 <0>        -1.1147
     28 C19         9.3145   10.0197   -0.5858 C.3       1 <0>         0.1997
     29 C20         8.7548   11.3200   -1.1025 C.2       1 <0>        -0.0350
     30 C21         7.7759   11.4473   -2.0161 C.2       1 <0>        -0.1824
     31 C22         7.5682   12.8331   -2.2036 C.2       1 <0>        -0.2187
     32 C23         8.4327   13.4699   -1.3933 C.2       1 <0>        -0.0243
     33 O6          9.1449   12.5483   -0.7245 O.3       1 <0>        -0.1692
     34 H1         -0.8920    1.9726    0.0251 H         1 <0>         0.1518
     35 H2          1.6822    2.7903    0.0004 H         1 <0>         0.1513
     36 H3         -0.8653   -0.6475    0.0072 H         1 <0>         0.2065
     37 H4          3.9365   -0.2705   -0.5508 H         1 <0>         0.1007
     38 H5          3.9779    1.5090   -0.5417 H         1 <0>         0.0982
     39 H6          3.5091    0.8336    2.0821 H         1 <0>         0.4243
     40 H7          6.8226    0.4383   -0.9625 H         1 <0>         0.1488
     41 H8          8.2319    2.1697   -1.9904 H         1 <0>         0.1379
     42 H9          6.7142    2.6613    2.6766 H         1 <0>         0.1474
     43 H10         7.5842    5.4899    1.9163 H         1 <0>         0.1117
     44 H11         9.0480    4.6318    2.4789 H         1 <0>         0.1128
     45 H12         9.6995    4.2516   -2.6332 H         1 <0>         0.1377
     46 H13        10.9839    6.3414   -2.7851 H         1 <0>         0.1485
     47 H14         9.9772    7.2752    1.2535 H         1 <0>         0.1478
     48 H15        10.5817   10.0215   -2.2895 H         1 <0>         0.4243
     49 H16         8.5400    9.2533   -0.6157 H         1 <0>         0.0980
     50 H17         9.6544   10.1529    0.4412 H         1 <0>         0.1007
     51 H18         7.2499   10.6448   -2.5119 H         1 <0>         0.1514
     52 H19         6.8528   13.2924   -2.8696 H         1 <0>         0.1518
     53 H20         8.5338   14.5405   -1.2939 H         1 <0>         0.2066
@<TRIPOS>BOND
     1    1    5 2
     2    1    2 1
     3    1   34 1
     4    2    3 2
     5    2   35 1
     6    3    4 1
     7    3    6 1
     8    4    5 1
     9    5   36 1
    10    6    7 1
    11    6   37 1
    12    6   38 1
    13    7    8 1
    14    7   39 1
    15    8    9 2
    16    8   10 2
    17    8   11 1
    18   11   16 ar
    19   11   12 ar
    20   12   13 ar
    21   12   40 1
    22   13   14 ar
    23   13   41 1
    24   14   19 1
    25   14   15 ar
    26   15   16 ar
    27   15   17 1
    28   16   42 1
    29   17   18 1
    30   17   43 1
    31   17   44 1
    32   18   23 ar
    33   18   19 ar
    34   19   20 ar
    35   20   21 ar
    36   20   45 1
    37   21   22 ar
    38   21   46 1
    39   22   23 ar
    40   22   24 1
    41   23   47 1
    42   24   25 2
    43   24   26 2
    44   24   27 1
    45   27   28 1
    46   27   48 1
    47   28   29 1
    48   28   49 1
    49   28   50 1
    50   29   33 1
    51   29   30 2
    52   30   31 1
    53   30   51 1
    54   31   32 2
    55   31   52 1
    56   32   33 1
    57   32   53 1
@<TRIPOS>MOLECULE
ZINC01534489
   54    55     0     0     0
SMALL
USER_CHARGES

@<TRIPOS>ATOM
      1 C1         -0.0187    1.5258    0.0104 C.3       1 <0>        -0.1390
      2 C2          0.0021   -0.0041    0.0020 C.3       1 <0>        -0.1008
      3 C3          0.7421   -0.5109    1.2415 C.3       1 <0>        -0.1480
      4 C4         -1.4333   -0.5336    0.0129 C.3       1 <0>         0.1516
      5 H1         -1.9605   -0.1726   -0.8702 H         1 <0>         0.1198
      6 C5         -1.4129   -2.0405    0.0046 C.2       1 <0>         0.5252
      7 O1         -1.9211   -2.6589    0.9158 O.2       1 <0>        -0.5300
      8 N1         -0.8299   -2.7009   -1.0154 N.am      1 <0>        -0.7064
      9 C6         -0.8100   -4.1658   -1.0235 C.3       1 <0>         0.0836
     10 H2         -0.7057   -4.5333   -0.0026 H         1 <0>         0.1247
     11 C7          0.3705   -4.6552   -1.8648 C.3       1 <0>        -0.0815
     12 C8          1.6618   -4.2426   -1.2065 C.ar      1 <0>        -0.0862
     13 C9          2.2373   -3.0246   -1.5166 C.ar      1 <0>        -0.1116
     14 C10         3.4218   -2.6461   -0.9128 C.ar      1 <0>        -0.1146
     15 C11         4.0305   -3.4854    0.0015 C.ar      1 <0>        -0.1185
     16 C12         3.4545   -4.7030    0.3123 C.ar      1 <0>        -0.1159
     17 C13         2.2678   -5.0796   -0.2883 C.ar      1 <0>        -0.1128
     18 C14        -2.0964   -4.6824   -1.6145 C.2       1 <0>         0.3287
     19 O2         -2.9425   -3.9069   -1.9901 O.2       1 <0>        -0.4403
     20 N2         -2.1190   -0.0612    1.2182 N.am      1 <0>        -0.6893
     21 C15        -2.7041    1.1529    1.2285 C.2       1 <0>         0.6538
     22 O3         -2.6628    1.8557    0.2381 O.2       1 <0>        -0.5648
     23 O4         -3.3343    1.5871    2.3362 O.3       1 <0>        -0.3574
     24 C16        -3.9321    2.8837    2.2764 C.3       1 <0>         0.1293
     25 C17        -4.5858    3.1969    3.5977 C.ar      1 <0>        -0.1011
     26 C18        -5.9050    2.8467    3.8163 C.ar      1 <0>        -0.0930
     27 C19        -6.5046    3.1340    5.0283 C.ar      1 <0>        -0.1232
     28 C20        -5.7848    3.7710    6.0217 C.ar      1 <0>        -0.1073
     29 C21        -4.4653    4.1204    5.8034 C.ar      1 <0>        -0.1236
     30 C22        -3.8644    3.8293    4.5930 C.ar      1 <0>        -0.0934
     31 H3          1.0039    1.9031    0.0027 H         1 <0>         0.0544
     32 H4         -0.5459    1.8868   -0.8726 H         1 <0>         0.0676
     33 H5         -0.5289    1.8773    0.9072 H         1 <0>         0.0542
     34 H6          0.5123   -0.3556   -0.8948 H         1 <0>         0.0847
     35 H7          0.2319   -0.1594    2.1383 H         1 <0>         0.0578
     36 H8          0.7568   -1.6008    1.2356 H         1 <0>         0.0552
     37 H9          1.7647   -0.1336    1.2338 H         1 <0>         0.0621
     38 H10        -0.4234   -2.2064   -1.7442 H         1 <0>         0.4047
     39 H11         0.3342   -5.7417   -1.9444 H         1 <0>         0.1008
     40 H12         0.3138   -4.2158   -2.8607 H         1 <0>         0.0856
     41 H13         1.7618   -2.3689   -2.2310 H         1 <0>         0.1178
     42 H14         3.8718   -1.6949   -1.1556 H         1 <0>         0.1221
     43 H15         4.9563   -3.1900    0.4727 H         1 <0>         0.1212
     44 H16         3.9302   -5.3588    1.0264 H         1 <0>         0.1224
     45 H17         1.8158   -6.0292   -0.0427 H         1 <0>         0.1232
     46 H18        -2.2617   -5.7460   -1.7020 H         1 <0>         0.1077
     47 H19        -2.1520   -0.6222    2.0088 H         1 <0>         0.4163
     48 H20        -3.1646    3.6283    2.0653 H         1 <0>         0.0787
     49 H21        -4.6828    2.9016    1.4864 H         1 <0>         0.0787
     50 H22        -6.4674    2.3490    3.0402 H         1 <0>         0.1249
     51 H23        -7.5355    2.8610    5.1989 H         1 <0>         0.1263
     52 H24        -6.2535    3.9961    6.9684 H         1 <0>         0.1252
     53 H25        -3.9031    4.6184    6.5795 H         1 <0>         0.1262
     54 H26        -2.8324    4.0989    4.4238 H         1 <0>         0.1246
@<TRIPOS>BOND
     1    1    2 1
     2    1   31 1
     3    1   32 1
     4    1   33 1
     5    2    3 1
     6    2    4 1
     7    2   34 1
     8    3   35 1
     9    3   36 1
    10    3   37 1
    11    4    5 1
    12    4    6 1
    13    4   20 1
    14    6    7 2
    15    6    8 am
    16    8    9 1
    17    8   38 1
    18    9   10 1
    19    9   11 1
    20    9   18 1
    21   11   12 1
    22   11   39 1
    23   11   40 1
    24   12   17 ar
    25   12   13 ar
    26   13   14 ar
    27   13   41 1
    28   14   15 ar
    29   14   42 1
    30   15   16 ar
    31   15   43 1
    32   16   17 ar
    33   16   44 1
    34   17   45 1
    35   18   19 2
    36   18   46 1
    37   20   21 am
    38   20   47 1
    39   21   22 2
    40   21   23 1
    41   23   24 1
    42   24   25 1
    43   24   48 1
    44   24   49 1
    45   25   30 ar
    46   25   26 ar
    47   26   27 ar
    48   26   50 1
    49   27   28 ar
    50   27   51 1
    51   28   29 ar
    52   28   52 1
    53   29   30 ar
    54   29   53 1
    55   30   54 1
@<TRIPOS>MOLECULE
ZINC01996112
   54    55     0     0     0
SMALL
USER_CHARGES

@<TRIPOS>ATOM
      1 C1         -0.0187    1.5258    0.0104 C.3       1 <0>        -0.1388
      2 C2          0.0021   -0.0041    0.0020 C.3       1 <0>        -0.1007
      3 C3          0.7421   -0.5109    1.2415 C.3       1 <0>        -0.1535
      4 C4         -1.4333   -0.5336    0.0129 C.3       1 <0>         0.1524
      5 H1         -1.9605   -0.1726   -0.8702 H         1 <0>         0.1187
      6 C5         -1.4129   -2.0405    0.0046 C.2       1 <0>         0.5248
      7 O1         -1.9211   -2.6589    0.9158 O.2       1 <0>        -0.5301
      8 N1         -0.8299   -2.7009   -1.0154 N.am      1 <0>        -0.7063
      9 C6         -0.8100   -4.1658   -1.0235 C.3       1 <0>         0.0832
     10 H2         -1.7322   -4.5441   -0.5824 H         1 <0>         0.1242
     11 C7         -0.6911   -4.6663   -2.4644 C.3       1 <0>        -0.0809
     12 C8         -1.9279   -4.2801   -3.2340 C.ar      1 <0>        -0.0874
     13 C9         -3.0158   -5.1323   -3.2666 C.ar      1 <0>        -0.1131
     14 C10        -4.1503   -4.7781   -3.9726 C.ar      1 <0>        -0.1162
     15 C11        -4.1970   -3.5714   -4.6455 C.ar      1 <0>        -0.1189
     16 C12        -3.1095   -2.7188   -4.6120 C.ar      1 <0>        -0.1162
     17 C13        -1.9766   -3.0712   -3.9026 C.ar      1 <0>        -0.1133
     18 C14         0.3683   -4.6566   -0.2224 C.2       1 <0>         0.3291
     19 O2          1.1145   -3.8645    0.3013 O.2       1 <0>        -0.4383
     20 N2         -2.1190   -0.0612    1.2182 N.am      1 <0>        -0.6893
     21 C15        -2.7041    1.1529    1.2285 C.2       1 <0>         0.6538
     22 O3         -2.6628    1.8557    0.2381 O.2       1 <0>        -0.5654
     23 O4         -3.3343    1.5871    2.3362 O.3       1 <0>        -0.3574
     24 C16        -3.9321    2.8837    2.2764 C.3       1 <0>         0.1295
     25 C17        -4.5858    3.1969    3.5977 C.ar      1 <0>        -0.1012
     26 C18        -5.9050    2.8467    3.8163 C.ar      1 <0>        -0.0931
     27 C19        -6.5046    3.1340    5.0283 C.ar      1 <0>        -0.1233
     28 C20        -5.7848    3.7710    6.0217 C.ar      1 <0>        -0.1072
     29 C21        -4.4653    4.1204    5.8034 C.ar      1 <0>        -0.1235
     30 C22        -3.8644    3.8293    4.5930 C.ar      1 <0>        -0.0932
     31 H3          1.0039    1.9031    0.0027 H         1 <0>         0.0544
     32 H4         -0.5459    1.8868   -0.8726 H         1 <0>         0.0668
     33 H5         -0.5289    1.8773    0.9072 H         1 <0>         0.0537
     34 H6          0.5123   -0.3556   -0.8948 H         1 <0>         0.0845
     35 H7          0.2319   -0.1594    2.1383 H         1 <0>         0.0554
     36 H8          0.7568   -1.6008    1.2356 H         1 <0>         0.0664
     37 H9          1.7647   -0.1336    1.2338 H         1 <0>         0.0605
     38 H10        -0.4234   -2.2064   -1.7442 H         1 <0>         0.4047
     39 H11         0.1840   -4.2172   -2.9340 H         1 <0>         0.0856
     40 H12        -0.5870   -5.7513   -2.4647 H         1 <0>         0.1008
     41 H13        -2.9793   -6.0750   -2.7409 H         1 <0>         0.1238
     42 H14        -5.0000   -5.4442   -3.9987 H         1 <0>         0.1231
     43 H15        -5.0831   -3.2950   -5.1976 H         1 <0>         0.1221
     44 H16        -3.1458   -1.7763   -5.1380 H         1 <0>         0.1231
     45 H17        -1.1283   -2.4034   -3.8734 H         1 <0>         0.1188
     46 H18         0.5454   -5.7167   -0.1165 H         1 <0>         0.1071
     47 H19        -2.1520   -0.6222    2.0088 H         1 <0>         0.4165
     48 H20        -3.1646    3.6283    2.0653 H         1 <0>         0.0787
     49 H21        -4.6828    2.9016    1.4864 H         1 <0>         0.0785
     50 H22        -6.4674    2.3490    3.0402 H         1 <0>         0.1247
     51 H23        -7.5355    2.8610    5.1989 H         1 <0>         0.1263
     52 H24        -6.2535    3.9961    6.9684 H         1 <0>         0.1252
     53 H25        -3.9031    4.6184    6.5795 H         1 <0>         0.1263
     54 H26        -2.8324    4.0989    4.4238 H         1 <0>         0.1247
@<TRIPOS>BOND
     1    1    2 1
     2    1   31 1
     3    1   32 1
     4    1   33 1
     5    2    3 1
     6    2    4 1
     7    2   34 1
     8    3   35 1
     9    3   36 1
    10    3   37 1
    11    4    5 1
    12    4    6 1
    13    4   20 1
    14    6    7 2
    15    6    8 am
    16    8    9 1
    17    8   38 1
    18    9   10 1
    19    9   11 1
    20    9   18 1
    21   11   12 1
    22   11   39 1
    23   11   40 1
    24   12   17 ar
    25   12   13 ar
    26   13   14 ar
    27   13   41 1
    28   14   15 ar
    29   14   42 1
    30   15   16 ar
    31   15   43 1
    32   16   17 ar
    33   16   44 1
    34   17   45 1
    35   18   19 2
    36   18   46 1
    37   20   21 am
    38   20   47 1
    39   21   22 2
    40   21   23 1
    41   23   24 1
    42   24   25 1
    43   24   48 1
    44   24   49 1
    45   25   30 ar
    46   25   26 ar
    47   26   27 ar
    48   26   50 1
    49   27   28 ar
    50   27   51 1
    51   28   29 ar
    52   28   52 1
    53   29   30 ar
    54   29   53 1
    55   30   54 1
@<TRIPOS>MOLECULE
ZINC00878206
   46    47     0     0     0
SMALL
USER_CHARGES
methyl 2-[2-[2-(4,6-dimethylpyrimidin-2-yl)sulfanylacetyl]oxyacetyl]aminobenzoate
@<TRIPOS>ATOM
      1 C1          3.1652   -1.1306    2.8537 C.3       1 <0>        -0.1085
      2 C2          1.9622   -0.3275    3.2765 C.ar      1 <0>         0.1948
      3 C3          1.6762   -0.1474    4.6209 C.ar      1 <0>        -0.2363
      4 C4          0.5600    0.5981    4.9672 C.ar      1 <0>         0.1952
      5 N1         -0.1946    1.1125    4.0105 N.ar      1 <0>        -0.5062
      6 C5          0.1065    0.9216    2.7338 C.ar      1 <0>         0.2893
      7 N2          1.1635    0.2095    2.3694 N.ar      1 <0>        -0.5362
      8 S1         -0.9265    1.6252    1.4918 S.3       1 <0>         0.0937
      9 C6         -0.0622    1.0584    0.0060 C.3       1 <0>        -0.1277
     10 C7         -0.7878    1.5557   -1.2177 C.2       1 <0>         0.4854
     11 O1         -1.7868    2.2246   -1.0975 O.2       1 <0>        -0.4866
     12 O2         -0.3243    1.2554   -2.4411 O.3       1 <0>        -0.3236
     13 C8         -1.0739    1.7680   -3.5741 C.3       1 <0>         0.0517
     14 C9         -0.4089    1.3331   -4.8546 C.2       1 <0>         0.5196
     15 O3          0.5977    0.6577   -4.8161 O.2       1 <0>        -0.4936
     16 N3         -0.9328    1.6947   -6.0426 N.am      1 <0>        -0.6590
     17 C10        -0.2686    1.3726   -7.2234 C.ar      1 <0>         0.2141
     18 C11         0.4294    0.1768   -7.3275 C.ar      1 <0>        -0.1363
     19 C12         1.0825   -0.1429   -8.5006 C.ar      1 <0>        -0.0589
     20 C13         1.0566    0.7283   -9.5780 C.ar      1 <0>        -0.1464
     21 C14         0.3740    1.9220   -9.4914 C.ar      1 <0>        -0.0414
     22 C15        -0.2966    2.2574   -8.3121 C.ar      1 <0>        -0.1620
     23 C16        -1.0284    3.5329   -8.2124 C.2       1 <0>         0.5163
     24 O4         -1.5272    3.8661   -7.1557 O.2       1 <0>        -0.5146
     25 O5         -1.1441    4.3295   -9.2931 O.3       1 <0>        -0.3506
     26 C17        -1.8783    5.5704   -9.1216 C.3       1 <0>         0.0360
     27 C18         0.2109    0.8203    6.4163 C.3       1 <0>        -0.1085
     28 H1          2.8829   -2.1777    2.7444 H         1 <0>         0.0886
     29 H2          3.5375   -0.7533    1.9013 H         1 <0>         0.0845
     30 H3          3.9454   -1.0417    3.6097 H         1 <0>         0.0839
     31 H4          2.3093   -0.5789    5.3822 H         1 <0>         0.1501
     32 H5         -0.0352   -0.0312   -0.0053 H         1 <0>         0.1402
     33 H6          0.9561    1.4471    0.0075 H         1 <0>         0.1399
     34 H7         -2.0915    1.3785   -3.5427 H         1 <0>         0.1115
     35 H8         -1.1001    2.8568   -3.5299 H         1 <0>         0.1135
     36 H9         -1.7724    2.1793   -6.0750 H         1 <0>         0.4244
     37 H10         0.4578   -0.5058   -6.4910 H         1 <0>         0.1507
     38 H11         1.6209   -1.0760   -8.5779 H         1 <0>         0.1367
     39 H12         1.5744    0.4704  -10.4900 H         1 <0>         0.1361
     40 H13         0.3576    2.5977  -10.3337 H         1 <0>         0.1437
     41 H14        -1.8964    6.1153  -10.0655 H         1 <0>         0.1056
     42 H15        -2.8991    5.3486   -8.8106 H         1 <0>         0.0661
     43 H16        -1.3905    6.1789   -8.3601 H         1 <0>         0.0658
     44 H17        -0.4458    0.0205    6.7585 H         1 <0>         0.0891
     45 H18         1.1227    0.8223    7.0135 H         1 <0>         0.0841
     46 H19        -0.2966    1.7788    6.5249 H         1 <0>         0.0855
@<TRIPOS>BOND
     1    1    2 1
     2    1   28 1
     3    1   29 1
     4    1   30 1
     5    2    7 ar
     6    2    3 ar
     7    3    4 ar
     8    3   31 1
     9    4    5 ar
    10    4   27 1
    11    5    6 ar
    12    6    7 ar
    13    6    8 1
    14    8    9 1
    15    9   10 1
    16    9   32 1
    17    9   33 1
    18   10   11 2
    19   10   12 1
    20   12   13 1
    21   13   14 1
    22   13   34 1
    23   13   35 1
    24   14   15 2
    25   14   16 am
    26   16   17 1
    27   16   36 1
    28   17   22 ar
    29   17   18 ar
    30   18   19 ar
    31   18   37 1
    32   19   20 ar
    33   19   38 1
    34   20   21 ar
    35   20   39 1
    36   21   22 ar
    37   21   40 1
    38   22   23 1
    39   23   24 2
    40   23   25 1
    41   25   26 1
    42   26   41 1
    43   26   42 1
    44   26   43 1
    45   27   44 1
    46   27   45 1
    47   27   46 1
@<TRIPOS>MOLECULE
ZINC01225898
   47    49     0     0     0
SMALL
USER_CHARGES

@<TRIPOS>ATOM
      1 C1         -0.0167    1.3799    0.0096 C.ar      1 <0>        -0.1350
      2 C2          1.1649    2.0916    0.0022 C.ar      1 <0>        -0.0737
      3 C3          2.3857    1.4136   -0.0131 C.ar      1 <0>        -0.0892
      4 C4          2.3997    0.0116   -0.0207 C.ar      1 <0>         0.1482
      5 C5          1.2040   -0.6870   -0.0130 C.ar      1 <0>        -0.1536
      6 C6          0.0021   -0.0041    0.0020 C.ar      1 <0>        -0.0846
      7 O1          3.5809   -0.6584   -0.0360 O.3       1 <0>        -0.4736
      8 C7          3.6518    2.1674   -0.0216 C.2       1 <0>         0.1080
      9 N1          4.7847    1.5333   -0.0358 N.2       1 <0>        -0.2048
     10 N2          5.9885    2.2499   -0.0439 N.am      1 <0>        -0.5708
     11 C8          7.1646    1.5917   -0.0586 C.2       1 <0>         0.5942
     12 O2          7.1808    0.3762   -0.0648 O.2       1 <0>        -0.4826
     13 C9          8.4374    2.3495   -0.0672 C.ar      1 <0>         0.0821
     14 N3          8.4119    3.6732   -0.0549 N.ar      1 <0>        -0.4421
     15 C10         9.5264    4.3878   -0.0619 C.ar      1 <0>         0.0822
     16 C11        10.7744    3.7615   -0.0827 C.ar      1 <0>        -0.0789
     17 C12        10.8372    2.3775   -0.0961 C.ar      1 <0>        -0.0781
     18 C13         9.6518    1.6603   -0.0824 C.ar      1 <0>        -0.0789
     19 C14         9.4488    5.8671   -0.0480 C.2       1 <0>         0.5942
     20 O3         10.4682    6.5293   -0.0544 O.2       1 <0>        -0.4826
     21 N4          8.2480    6.4787   -0.0284 N.am      1 <0>        -0.5708
     22 N5          8.1746    7.8777   -0.0153 N.2       1 <0>        -0.2047
     23 C15         7.0177    8.4669    0.0037 C.2       1 <0>         0.1079
     24 C16         6.9405    9.9384    0.0175 C.ar      1 <0>        -0.0891
     25 C17         8.1136   10.7061    0.0044 C.ar      1 <0>         0.1482
     26 C18         8.0297   12.0884    0.0176 C.ar      1 <0>        -0.1536
     27 C19         6.7940   12.7077    0.0436 C.ar      1 <0>        -0.0846
     28 C20         5.6332   11.9539    0.0565 C.ar      1 <0>        -0.1350
     29 C21         5.6983   10.5762    0.0379 C.ar      1 <0>        -0.0738
     30 O4          9.3271   10.0968   -0.0206 O.3       1 <0>        -0.4736
     31 H1         -0.9604    1.9048    0.0260 H         1 <0>         0.1309
     32 H2          1.1459    3.1714    0.0078 H         1 <0>         0.1322
     33 H3          1.2105   -1.7670   -0.0192 H         1 <0>         0.1334
     34 H4         -0.9276   -0.5536    0.0079 H         1 <0>         0.1300
     35 H5          3.9317   -0.8571    0.8429 H         1 <0>         0.3933
     36 H6          3.6374    3.2472   -0.0161 H         1 <0>         0.1214
     37 H7          5.9756    3.2198   -0.0389 H         1 <0>         0.3923
     38 H8         11.6803    4.3494   -0.0888 H         1 <0>         0.1610
     39 H9         11.7897    1.8686   -0.1126 H         1 <0>         0.1597
     40 H10         9.6667    0.5804   -0.0880 H         1 <0>         0.1610
     41 H11         7.4346    5.9503   -0.0233 H         1 <0>         0.3923
     42 H12         6.1121    7.8786    0.0093 H         1 <0>         0.1215
     43 H13         8.9310   12.6834    0.0080 H         1 <0>         0.1334
     44 H14         6.7341   13.7860    0.0541 H         1 <0>         0.1300
     45 H15         4.6724   12.4466    0.0768 H         1 <0>         0.1309
     46 H16         4.7902    9.9917    0.0432 H         1 <0>         0.1323
     47 H17         9.6639    9.9276   -0.9111 H         1 <0>         0.3932
@<TRIPOS>BOND
     1    1    6 ar
     2    1    2 ar
     3    1   31 1
     4    2    3 ar
     5    2   32 1
     6    3    4 ar
     7    3    8 1
     8    4    5 ar
     9    4    7 1
    10    5    6 ar
    11    5   33 1
    12    6   34 1
    13    7   35 1
    14    8    9 2
    15    8   36 1
    16    9   10 1
    17   10   11 am
    18   10   37 1
    19   11   12 2
    20   11   13 1
    21   13   18 ar
    22   13   14 ar
    23   14   15 ar
    24   15   16 ar
    25   15   19 1
    26   16   17 ar
    27   16   38 1
    28   17   18 ar
    29   17   39 1
    30   18   40 1
    31   19   20 2
    32   19   21 am
    33   21   22 1
    34   21   41 1
    35   22   23 2
    36   23   24 1
    37   23   42 1
    38   24   29 ar
    39   24   25 ar
    40   25   26 ar
    41   25   30 1
    42   26   27 ar
    43   26   43 1
    44   27   28 ar
    45   27   44 1
    46   28   29 ar
    47   28   45 1
    48   29   46 1
    49   30   47 1
