@<TRIPOS>MOLECULE
ZINC04096261
   48    50     0     0     0
SMALL
USER_CHARGES

@<TRIPOS>ATOM
      1 C1         -0.3003    1.5797    0.4109 C.2       1 <0>        -0.0602
      2 C2          0.9837    1.9217    0.1914 C.2       1 <0>         0.0120
      3 N1          1.6828    0.7964   -0.0181 N.2       1 <0>        -0.4567
      4 C3          0.8809   -0.2299    0.0633 C.2       1 <0>         0.1959
      5 N2         -0.3660    0.2149    0.3298 N.pl3     1 <0>        -0.5710
      6 H1         -1.1599   -0.3308    0.4429 H         1 <0>         0.4168
      7 C4          1.5377    3.3231    0.1826 C.3       1 <0>        -0.0358
      8 C5          2.6984    3.4189    1.1748 C.3       1 <0>         0.1474
      9 H2          3.4233    2.6329    0.9630 H         1 <0>         0.1179
     10 C6          3.3635    4.7646    1.0416 C.2       1 <0>         0.5363
     11 O1          3.0187    5.6845    1.7528 O.2       1 <0>        -0.5177
     12 N3          4.3414    4.9460    0.1321 N.am      1 <0>        -0.5999
     13 C7          4.7825    3.9534   -0.8647 C.3       1 <0>         0.0942
     14 C8          5.4165    4.7901   -2.0038 C.3       1 <0>        -0.1335
     15 C9          6.1142    5.9237   -1.2065 C.3       1 <0>        -0.1250
     16 C10         5.1407    6.1687   -0.0345 C.3       1 <0>         0.1178
     17 H3          5.7038    6.3704    0.8767 H         1 <0>         0.1038
     18 C11         4.2370    7.3326   -0.3502 C.2       1 <0>         0.5096
     19 O2          3.0385    7.1655   -0.4303 O.2       1 <0>        -0.5167
     20 N4          4.7608    8.5593   -0.5436 N.am      1 <0>        -0.8566
     21 N5          2.1891    3.2588    2.5391 N.am      1 <0>        -0.7133
     22 C12         2.0198    2.0251    3.0547 C.2       1 <0>         0.4948
     23 O3          2.2890    1.0475    2.3893 O.2       1 <0>        -0.4895
     24 C13         1.4959    1.8604    4.4581 C.3       1 <0>         0.1158
     25 H4          0.6975    2.5776    4.6487 H         1 <0>         0.1103
     26 C14         2.6384    2.0481    5.4807 C.3       1 <0>        -0.1201
     27 C15         3.1094    0.5914    5.6981 C.3       1 <0>        -0.1564
     28 C16         1.8984   -0.2459    5.3500 C.2       1 <0>         0.5292
     29 O4          1.7508   -1.4119    5.6493 O.2       1 <0>        -0.5287
     30 N6          1.0076    0.4912    4.6605 N.am      1 <0>        -0.7085
     31 H5         -1.1197    2.2527    0.6162 H         1 <0>         0.1672
     32 H6          1.1670   -1.2637   -0.0623 H         1 <0>         0.1998
     33 H7          1.8943    3.5666   -0.8183 H         1 <0>         0.0854
     34 H8          0.7550    4.0251    0.4702 H         1 <0>         0.0834
     35 H9          5.5230    3.2822   -0.4297 H         1 <0>         0.0793
     36 H10         3.9297    3.3872   -1.2394 H         1 <0>         0.0874
     37 H11         6.1436    4.2012   -2.5630 H         1 <0>         0.0938
     38 H12         4.6501    5.1928   -2.6660 H         1 <0>         0.0797
     39 H13         7.0877    5.5959   -0.8419 H         1 <0>         0.0931
     40 H14         6.2121    6.8210   -1.8174 H         1 <0>         0.0885
     41 H15         5.7194    8.6929   -0.4796 H         1 <0>         0.4003
     42 H16         4.1792    9.3085   -0.7468 H         1 <0>         0.4036
     43 H17         1.9738    4.0406    3.0713 H         1 <0>         0.4077
     44 H18         3.4390    2.6587    5.0633 H         1 <0>         0.0950
     45 H19         2.2641    2.4796    6.4090 H         1 <0>         0.0974
     46 H20         3.9401    0.3558    5.0329 H         1 <0>         0.1076
     47 H21         3.3957    0.4342    6.7380 H         1 <0>         0.1072
     48 H22         0.1539    0.1615    4.3391 H         1 <0>         0.4116
@<TRIPOS>BOND
     1    1    5 1
     2    1    2 2
     3    1   31 1
     4    2    3 1
     5    2    7 1
     6    3    4 2
     7    4    5 1
     8    4   32 1
     9    5    6 1
    10    7    8 1
    11    7   33 1
    12    7   34 1
    13    8    9 1
    14    8   10 1
    15    8   21 1
    16   10   11 2
    17   10   12 am
    18   12   16 1
    19   12   13 1
    20   13   14 1
    21   13   35 1
    22   13   36 1
    23   14   15 1
    24   14   37 1
    25   14   38 1
    26   15   16 1
    27   15   39 1
    28   15   40 1
    29   16   17 1
    30   16   18 1
    31   18   19 2
    32   18   20 am
    33   20   41 1
    34   20   42 1
    35   21   22 am
    36   21   43 1
    37   22   23 2
    38   22   24 1
    39   24   25 1
    40   24   30 1
    41   24   26 1
    42   26   27 1
    43   26   44 1
    44   26   45 1
    45   27   28 1
    46   27   46 1
    47   27   47 1
    48   28   29 2
    49   28   30 am
    50   30   48 1
@<TRIPOS>MOLECULE
ZINC04096261
   49    51     0     0     0
SMALL
USER_CHARGES

@<TRIPOS>ATOM
      1 C1         -0.4315    1.6631    0.1325 C.2       1 <0>         0.0401
      2 C2          0.8620    1.9796   -0.0679 C.2       1 <0>         0.0472
      3 N1          1.5321    0.8459   -0.3221 N.pl3     1 <0>        -0.4683
      4 C3          0.7029   -0.1612   -0.2868 C.cat     1 <0>         0.3138
      5 N2         -0.5330    0.3051   -0.0062 N.pl3     1 <0>        -0.5014
      6 H1         -1.3416   -0.2236    0.0810 H         1 <0>         0.4653
      7 C4          1.4530    3.3649   -0.0157 C.3       1 <0>        -0.0687
      8 C5          1.7970    3.7184    1.4326 C.3       1 <0>         0.1383
      9 H2          2.4498    2.9510    1.8487 H         1 <0>         0.1157
     10 C6          2.5000    5.0508    1.4711 C.2       1 <0>         0.5328
     11 O1          1.8604    6.0697    1.6251 O.2       1 <0>        -0.4983
     12 N3          3.8395    5.1102    1.3343 N.am      1 <0>        -0.5977
     13 C7          4.7247    3.9684    1.0407 C.3       1 <0>         0.0948
     14 C8          5.9795    4.5977    0.3856 C.3       1 <0>        -0.1349
     15 C9          6.1249    5.9148    1.1926 C.3       1 <0>        -0.1267
     16 C10         4.6593    6.3255    1.4469 C.3       1 <0>         0.1166
     17 H3          4.5626    6.7465    2.4476 H         1 <0>         0.1097
     18 C11         4.2216    7.3360    0.4181 C.2       1 <0>         0.5124
     19 O2          3.3125    7.0742   -0.3406 O.2       1 <0>        -0.5250
     20 N4          4.8406    8.5308    0.3413 N.am      1 <0>        -0.8516
     21 N5          0.5657    3.7929    2.2228 N.am      1 <0>        -0.7106
     22 C12         0.0390    2.6733    2.7571 C.2       1 <0>         0.5061
     23 O3          0.5845    1.6040    2.5838 O.2       1 <0>        -0.5314
     24 C13        -1.2277    2.7500    3.5699 C.3       1 <0>         0.1139
     25 H4         -1.9313    3.4414    3.1064 H         1 <0>         0.1200
     26 C14        -0.9100    3.1983    5.0137 C.3       1 <0>        -0.1213
     27 C15        -0.7617    1.8411    5.7398 C.3       1 <0>        -0.1588
     28 C16        -1.5802    0.8818    4.9040 C.2       1 <0>         0.5292
     29 O4         -1.9559   -0.2117    5.2699 O.2       1 <0>        -0.5143
     30 N6         -1.8320    1.4184    3.6954 N.am      1 <0>        -0.7163
     31 H5         -1.2338    2.3484    0.3631 H         1 <0>         0.2142
     32 H6          0.9621   -1.1961   -0.4548 H         1 <0>         0.2643
     33 H7          2.3581    3.3969   -0.6223 H         1 <0>         0.1113
     34 H8          0.7304    4.0831   -0.4032 H         1 <0>         0.1259
     35 H9          4.9960    3.4522    1.9615 H         1 <0>         0.0825
     36 H10         4.2396    3.2807    0.3480 H         1 <0>         0.0726
     37 H11         6.8524    3.9588    0.5199 H         1 <0>         0.0978
     38 H12         5.8070    4.8037   -0.6708 H         1 <0>         0.0824
     39 H13         6.6476    5.7357    2.1322 H         1 <0>         0.0971
     40 H14         6.6388    6.6738    0.6028 H         1 <0>         0.0942
     41 H15         5.5677    8.7403    0.9482 H         1 <0>         0.4034
     42 H16         4.5589    9.1813   -0.3208 H         1 <0>         0.4078
     43 H17         0.1294    4.6481    2.3614 H         1 <0>         0.4211
     44 H18         0.0208    3.7642    5.0506 H         1 <0>         0.0969
     45 H19        -1.7334    3.7768    5.4326 H         1 <0>         0.1055
     46 H20         0.2834    1.5323    5.7614 H         1 <0>         0.1081
     47 H21        -1.1630    1.9038    6.7513 H         1 <0>         0.1137
     48 H22        -2.3461    0.9828    2.9976 H         1 <0>         0.4089
     49 H23         2.4829    0.7843   -0.5038 H         1 <0>         0.4616
@<TRIPOS>BOND
     1    1    5 1
     2    1    2 2
     3    1   31 1
     4    2    3 1
     5    2    7 1
     6    3    4 2
     7    3   49 1
     8    4    5 1
     9    4   32 1
    10    5    6 1
    11    7    8 1
    12    7   33 1
    13    7   34 1
    14    8    9 1
    15    8   10 1
    16    8   21 1
    17   10   11 2
    18   10   12 am
    19   12   16 1
    20   12   13 1
    21   13   14 1
    22   13   35 1
    23   13   36 1
    24   14   15 1
    25   14   37 1
    26   14   38 1
    27   15   16 1
    28   15   39 1
    29   15   40 1
    30   16   17 1
    31   16   18 1
    32   18   19 2
    33   18   20 am
    34   20   41 1
    35   20   42 1
    36   21   22 am
    37   21   43 1
    38   22   23 2
    39   22   24 1
    40   24   25 1
    41   24   30 1
    42   24   26 1
    43   26   27 1
    44   26   44 1
    45   26   45 1
    46   27   28 1
    47   27   46 1
    48   27   47 1
    49   28   29 2
    50   28   30 am
    51   30   48 1
@<TRIPOS>MOLECULE
ZINC04096261
   49    51     0     0     0
SMALL
USER_CHARGES

@<TRIPOS>ATOM
      1 C1         -0.4248    1.6219    0.1353 C.2       1 <0>         0.0130
      2 C2          0.8666    1.9567   -0.0481 C.2       1 <0>         0.0678
      3 N1          1.5486    0.7926   -0.2791 N.pl3     1 <0>        -0.5091
      4 H1          2.5000    0.7066   -0.4475 H         1 <0>         0.4641
      5 C3          0.6495   -0.2138   -0.2287 C.cat     1 <0>         0.3043
      6 N2         -0.5285    0.2897    0.0196 N.pl3     1 <0>        -0.4734
      7 C4          1.4490    3.3461   -0.0075 C.3       1 <0>        -0.0459
      8 C5          1.7688    3.7229    1.4405 C.3       1 <0>         0.0638
      9 H2          2.4238    2.9683    1.8761 H         1 <0>         0.0855
     10 C6          2.4568    5.0633    1.4706 C.2       1 <0>         0.5384
     11 O1          1.8058    6.0759    1.6176 O.2       1 <0>        -0.4874
     12 N3          3.7957    5.1367    1.3340 N.am      1 <0>        -0.6138
     13 C7          4.6928    4.0042    1.0408 C.3       1 <0>         0.0993
     14 C8          5.9411    4.6464    0.3858 C.3       1 <0>        -0.1346
     15 C9          6.0725    5.9652    1.1925 C.3       1 <0>        -0.1214
     16 C10         4.6026    6.3605    1.4464 C.3       1 <0>         0.2114
     17 H3          4.5013    6.7807    2.4471 H         1 <0>         0.1161
     18 C11         4.1545    7.3662    0.4174 C.2       1 <0>         0.3631
     19 N4          4.3516    8.6256    0.6175 N.2       1 <0>        -0.7361
     20 O2          3.5473    6.9497   -0.7132 O.3       1 <0>        -0.5255
     21 N5          0.5256    3.7947    2.2124 N.2       1 <0>        -0.4690
     22 C12         0.3552    3.0252    3.2341 C.2       1 <0>         0.3472
     23 C13        -0.9235    3.0991    4.0281 C.3       1 <0>         0.0964
     24 H4         -0.7223    3.4641    5.0352 H         1 <0>         0.1217
     25 C14        -1.6005    1.7098    4.0859 C.3       1 <0>        -0.1454
     26 C15        -3.0942    2.1067    4.0001 C.3       1 <0>        -0.1135
     27 C16        -3.0710    3.4600    3.3246 C.2       1 <0>         0.3301
     28 N6         -1.8918    3.9717    3.3541 N.2       1 <0>        -0.5336
     29 O3         -4.1465    4.0533    2.7663 O.3       1 <0>        -0.4518
     30 O4          1.3219    2.1545    3.5916 O.3       1 <0>        -0.5195
     31 H5         -1.2343    2.3058    0.3438 H         1 <0>         0.2223
     32 H6          0.8691   -1.2617   -0.3703 H         1 <0>         0.2672
     33 H7          2.3630    3.3744   -0.6006 H         1 <0>         0.1064
     34 H8          0.7283    4.0542   -0.4165 H         1 <0>         0.1285
     35 H9          4.9694    3.4910    1.9618 H         1 <0>         0.0772
     36 H10         4.2151    3.3112    0.3482 H         1 <0>         0.0686
     37 H11         6.8205    4.0167    0.5204 H         1 <0>         0.0945
     38 H12         5.7666    4.8504   -0.6707 H         1 <0>         0.0824
     39 H13         6.5969    5.7918    2.1322 H         1 <0>         0.0967
     40 H14         6.5785    6.7294    0.6025 H         1 <0>         0.0940
     41 H15         4.0632    9.2729   -0.0449 H         1 <0>         0.3456
     42 H16         3.2966    7.6664   -1.3119 H         1 <0>         0.3971
     43 H17        -1.3080    1.0946    3.2350 H         1 <0>         0.0759
     44 H18        -1.3816    1.2051    5.0269 H         1 <0>         0.1027
     45 H19        -3.6473    1.3872    3.3963 H         1 <0>         0.0992
     46 H20        -3.5275    2.1842    4.9972 H         1 <0>         0.1099
     47 H21        -3.9602    4.9182    2.3760 H         1 <0>         0.4159
     48 H22         1.1035    1.6216    4.3684 H         1 <0>         0.4075
     49 H23        -1.3496   -0.2193    0.1071 H         1 <0>         0.4664
@<TRIPOS>BOND
     1    1    6 1
     2    1    2 2
     3    1   31 1
     4    2    3 1
     5    2    7 1
     6    3    4 1
     7    3    5 1
     8    5    6 2
     9    5   32 1
    10    6   49 1
    11    7    8 1
    12    7   33 1
    13    7   34 1
    14    8    9 1
    15    8   10 1
    16    8   21 1
    17   10   11 2
    18   10   12 am
    19   12   16 1
    20   12   13 1
    21   13   14 1
    22   13   35 1
    23   13   36 1
    24   14   15 1
    25   14   37 1
    26   14   38 1
    27   15   16 1
    28   15   39 1
    29   15   40 1
    30   16   17 1
    31   16   18 1
    32   18   19 2
    33   18   20 1
    34   19   41 1
    35   20   42 1
    36   21   22 2
    37   22   23 1
    38   22   30 1
    39   23   24 1
    40   23   28 1
    41   23   25 1
    42   25   26 1
    43   25   43 1
    44   25   44 1
    45   26   27 1
    46   26   45 1
    47   26   46 1
    48   27   28 2
    49   27   29 1
    50   29   47 1
    51   30   48 1
@<TRIPOS>MOLECULE
ZINC04096261
   48    50     0     0     0
SMALL
USER_CHARGES

@<TRIPOS>ATOM
      1 C1          0.8828    1.6215    0.4543 C.2       1 <0>        -0.0360
      2 C2          0.5394    0.3248    0.3350 C.2       1 <0>         0.0059
      3 N1         -0.7972    0.2409    0.4098 N.2       1 <0>        -0.4917
      4 H1         -0.3608    3.2869    0.7195 H         1 <0>         0.4211
      5 C3         -1.2951    1.4364    0.5710 C.2       1 <0>         0.1831
      6 N2         -0.2802    2.3265    0.6092 N.pl3     1 <0>        -0.5690
      7 C4          1.4901   -0.8297    0.1498 C.3       1 <0>        -0.0117
      8 C5          1.2457   -1.8720    1.2427 C.3       1 <0>         0.0887
      9 H2          0.1983   -2.1736    1.2295 H         1 <0>         0.0839
     10 C6          2.1181   -3.0753    0.9934 C.2       1 <0>         0.5372
     11 O1          3.1302   -3.2354    1.6421 O.2       1 <0>        -0.5047
     12 N3          1.7734   -3.9736    0.0496 N.am      1 <0>        -0.6141
     13 C7          0.5258   -3.9590   -0.7357 C.3       1 <0>         0.0933
     14 C8          0.8626   -4.7410   -2.0298 C.3       1 <0>        -0.1326
     15 C9          1.8005   -5.8517   -1.4874 C.3       1 <0>        -0.1196
     16 C10         2.5823   -5.1267   -0.3719 C.3       1 <0>         0.2094
     17 H3          2.7334   -5.8013    0.4708 H         1 <0>         0.1133
     18 C11         3.9128   -4.6542   -0.8989 C.2       1 <0>         0.3672
     19 N4          4.9344   -5.4420   -0.8708 N.2       1 <0>        -0.7439
     20 O2          4.0357   -3.4076   -1.4001 O.3       1 <0>        -0.5196
     21 N5          1.5713   -1.2951    2.5494 N.2       1 <0>        -0.5093
     22 C12         0.7253   -1.3779    3.5202 C.2       1 <0>         0.3797
     23 C13        -0.5157   -2.2194    3.3684 C.3       1 <0>         0.0300
     24 H4         -0.5543   -2.6593    2.3719 H         1 <0>         0.1167
     25 C14        -1.7785   -1.3650    3.6273 C.3       1 <0>        -0.1396
     26 C15        -2.6816   -2.3886    4.3572 C.3       1 <0>        -0.1132
     27 C16        -1.7029   -3.3835    4.9407 C.2       1 <0>         0.3370
     28 N6         -0.5460   -3.2713    4.3910 N.2       1 <0>        -0.5712
     29 O3         -2.0045   -4.2730    5.9093 O.3       1 <0>        -0.4521
     30 O4          0.9517   -0.7112    4.6711 O.3       1 <0>        -0.4564
     31 H5          1.8837    2.0267    0.4360 H         1 <0>         0.1751
     32 H6         -2.3446    1.6741    0.6622 H         1 <0>         0.2059
     33 H7          1.3254   -1.2828   -0.8278 H         1 <0>         0.0873
     34 H8          2.5167   -0.4690    0.2147 H         1 <0>         0.0895
     35 H9         -0.2732   -4.4585   -0.1877 H         1 <0>         0.0737
     36 H10         0.2401   -2.9347   -0.9749 H         1 <0>         0.0859
     37 H11        -0.0364   -5.1703   -2.4720 H         1 <0>         0.0915
     38 H12         1.3832   -4.1054   -2.7461 H         1 <0>         0.0814
     39 H13         1.2214   -6.6810   -1.0811 H         1 <0>         0.0934
     40 H14         2.4783   -6.1988   -2.2672 H         1 <0>         0.0895
     41 H15         5.7908   -5.1379   -1.2100 H         1 <0>         0.3415
     42 H16         4.9256   -3.1956   -1.7134 H         1 <0>         0.3944
     43 H17        -1.5519   -0.5134    4.2688 H         1 <0>         0.0822
     44 H18        -2.2312   -1.0394    2.6907 H         1 <0>         0.1057
     45 H19        -3.2498   -1.9011    5.1494 H         1 <0>         0.1015
     46 H20        -3.3513   -2.8798    3.6512 H         1 <0>         0.1062
     47 H21        -1.2636   -4.8372    6.1697 H         1 <0>         0.4118
     48 H22         0.2633   -0.8344    5.3389 H         1 <0>         0.4015
@<TRIPOS>BOND
     1    1    2 2
     2    1   31 1
     3    1    6 1
     4    2    3 1
     5    2    7 1
     6    3    5 2
     7    4    6 1
     8    5   32 1
     9    5    6 1
    10    7    8 1
    11    7   33 1
    12    7   34 1
    13    8    9 1
    14    8   10 1
    15    8   21 1
    16   10   11 2
    17   10   12 am
    18   12   16 1
    19   12   13 1
    20   13   14 1
    21   13   35 1
    22   13   36 1
    23   14   15 1
    24   14   37 1
    25   14   38 1
    26   15   16 1
    27   15   39 1
    28   15   40 1
    29   16   17 1
    30   16   18 1
    31   18   19 2
    32   18   20 1
    33   19   41 1
    34   20   42 1
    35   21   22 2
    36   22   23 1
    37   22   30 1
    38   23   24 1
    39   23   28 1
    40   23   25 1
    41   25   26 1
    42   25   43 1
    43   25   44 1
    44   26   27 1
    45   26   45 1
    46   26   46 1
    47   27   28 2
    48   27   29 1
    49   29   47 1
    50   30   48 1
@<TRIPOS>MOLECULE
ZINC04096261
   48    50     0     0     0
SMALL
USER_CHARGES

@<TRIPOS>ATOM
      1 C1          0.3572    1.5853    0.4677 C.2       1 <0>        -0.0437
      2 C2          0.2632    0.2613    0.2405 C.2       1 <0>         0.0096
      3 N1         -1.0345   -0.0431    0.0914 N.2       1 <0>        -0.4789
      4 H1         -1.1787    3.0051    0.5933 H         1 <0>         0.4193
      5 C3         -1.7484    1.0420    0.2177 C.2       1 <0>         0.1806
      6 N2         -0.9190    2.0803    0.4584 N.pl3     1 <0>        -0.5714
      7 C4          1.4144   -0.7084    0.1666 C.3       1 <0>        -0.0130
      8 C5          1.1855   -1.8485    1.1608 C.3       1 <0>         0.0721
      9 H2          0.2203   -2.3147    0.9631 H         1 <0>         0.0913
     10 C6          2.2792   -2.8742    1.0095 C.2       1 <0>         0.5417
     11 O1          3.2725   -2.8083    1.7023 O.2       1 <0>        -0.5068
     12 N3          2.1534   -3.8648    0.1043 N.am      1 <0>        -0.6150
     13 C7          1.0578   -4.0022   -0.8725 C.3       1 <0>         0.0985
     14 C8          1.6547   -4.8537   -2.0207 C.3       1 <0>        -0.1333
     15 C9          2.5523   -5.8476   -1.2373 C.3       1 <0>        -0.1196
     16 C10         3.0895   -4.9840   -0.0767 C.3       1 <0>         0.2091
     17 H3          3.1362   -5.5794    0.8351 H         1 <0>         0.1115
     18 C11         4.4592   -4.4564   -0.4185 C.2       1 <0>         0.3707
     19 N4          5.5067   -5.1623   -0.1549 N.2       1 <0>        -0.7479
     20 O2          4.5901   -3.2460   -0.9999 O.3       1 <0>        -0.5178
     21 N5          1.2004   -1.3166    2.5258 N.2       1 <0>        -0.4623
     22 C12         0.1614   -1.4457    3.2800 C.2       1 <0>         0.3362
     23 C13         0.1767   -0.8985    4.6840 C.3       1 <0>         0.1019
     24 H4          0.1156   -1.7118    5.4071 H         1 <0>         0.1135
     25 C14        -0.9951    0.0900    4.8877 C.3       1 <0>        -0.1464
     26 C15        -0.3310    1.1493    5.8003 C.3       1 <0>        -0.1083
     27 C16         1.1461    1.0030    5.5093 C.2       1 <0>         0.3227
     28 N6          1.3917   -0.1072    4.9090 N.2       1 <0>        -0.5263
     29 O3          2.0833    1.9163    5.8381 O.3       1 <0>        -0.4568
     30 O4         -0.9388   -2.0708    2.8115 O.3       1 <0>        -0.5049
     31 H5          1.2646    2.1478    0.6306 H         1 <0>         0.1724
     32 H6         -2.8244    1.0996    0.1451 H         1 <0>         0.2049
     33 H7          1.4831   -1.1147   -0.8426 H         1 <0>         0.0809
     34 H8          2.3415   -0.1913    0.4139 H         1 <0>         0.0851
     35 H9          0.2091   -4.5158   -0.4210 H         1 <0>         0.0747
     36 H10         0.7558   -3.0229   -1.2440 H         1 <0>         0.0830
     37 H11         0.8707   -5.3805   -2.5647 H         1 <0>         0.0910
     38 H12         2.2498   -4.2380   -2.6951 H         1 <0>         0.0799
     39 H13         1.9636   -6.6839   -0.8601 H         1 <0>         0.0932
     40 H14         3.3717   -6.2024   -1.8624 H         1 <0>         0.0885
     41 H15         6.3883   -4.8227   -0.3749 H         1 <0>         0.3404
     42 H16         5.5058   -2.9936   -1.1810 H         1 <0>         0.3932
     43 H17        -1.3083    0.5286    3.9402 H         1 <0>         0.0847
     44 H18        -1.8330   -0.3924    5.3911 H         1 <0>         0.0974
     45 H19        -0.6753    2.1498    5.5385 H         1 <0>         0.0952
     46 H20        -0.5376    0.9346    6.8488 H         1 <0>         0.1032
     47 H21         2.9816    1.6684    5.5800 H         1 <0>         0.4115
     48 H22        -1.6650   -2.1188    3.4483 H         1 <0>         0.3946
@<TRIPOS>BOND
     1    1    2 2
     2    1   31 1
     3    1    6 1
     4    2    3 1
     5    2    7 1
     6    3    5 2
     7    4    6 1
     8    5   32 1
     9    5    6 1
    10    7    8 1
    11    7   33 1
    12    7   34 1
    13    8    9 1
    14    8   10 1
    15    8   21 1
    16   10   11 2
    17   10   12 am
    18   12   16 1
    19   12   13 1
    20   13   14 1
    21   13   35 1
    22   13   36 1
    23   14   15 1
    24   14   37 1
    25   14   38 1
    26   15   16 1
    27   15   39 1
    28   15   40 1
    29   16   17 1
    30   16   18 1
    31   18   19 2
    32   18   20 1
    33   19   41 1
    34   20   42 1
    35   21   22 2
    36   22   23 1
    37   22   30 1
    38   23   24 1
    39   23   28 1
    40   23   25 1
    41   25   26 1
    42   25   43 1
    43   25   44 1
    44   26   27 1
    45   26   45 1
    46   26   46 1
    47   27   28 2
    48   27   29 1
    49   29   47 1
    50   30   48 1
@<TRIPOS>MOLECULE
ZINC04096261
   49    51     0     0     0
SMALL
USER_CHARGES

@<TRIPOS>ATOM
      1 C1         -0.1822    2.6368   -0.4897 C.2       1 <0>         0.0253
      2 C2          1.1603    2.6462   -0.3845 C.2       1 <0>         0.0571
      3 N1          1.6028    1.4384   -0.8525 N.pl3     1 <0>        -0.5132
      4 H1          2.5257    1.1445   -0.9048 H         1 <0>         0.4636
      5 C3          0.5144    0.7324   -1.2277 C.cat     1 <0>         0.3005
      6 N2         -0.5495    1.4554   -1.0079 N.pl3     1 <0>        -0.4722
      7 C4          2.0119    3.7707    0.1462 C.3       1 <0>        -0.0420
      8 C5          2.0967    3.6706    1.6705 C.3       1 <0>         0.0818
      9 H2          2.4965    2.6955    1.9489 H         1 <0>         0.0728
     10 C6          3.0036    4.7537    2.1954 C.2       1 <0>         0.5329
     11 O1          2.5369    5.8139    2.5549 O.2       1 <0>        -0.4851
     12 N3          4.3331    4.5444    2.2652 N.am      1 <0>        -0.6136
     13 C7          5.0211    3.2784    1.9531 C.3       1 <0>         0.0957
     14 C8          6.4659    3.6940    1.5793 C.3       1 <0>        -0.1339
     15 C9          6.7201    4.8616    2.5690 C.3       1 <0>        -0.1216
     16 C10         5.3382    5.5425    2.6592 C.3       1 <0>         0.2110
     17 H3          5.1544    5.8697    3.6825 H         1 <0>         0.1183
     18 C11         5.2832    6.7223    1.7232 C.2       1 <0>         0.3597
     19 N4          5.6922    7.8801    2.1198 N.2       1 <0>        -0.7314
     20 O2          4.8064    6.5679    0.4705 O.3       1 <0>        -0.5284
     21 N5          0.7591    3.8322    2.2458 N.2       1 <0>        -0.5270
     22 C12         0.2962    2.9461    3.0616 C.2       1 <0>         0.3890
     23 C13         1.1791    1.8177    3.5288 C.3       1 <0>         0.0292
     24 H4          2.2000    2.1717    3.6728 H         1 <0>         0.1137
     25 C14         1.1526    0.6570    2.5070 C.3       1 <0>        -0.1384
     26 C15         1.2067   -0.5678    3.4520 C.3       1 <0>        -0.1154
     27 C16         0.6611   -0.0401    4.7604 C.2       1 <0>         0.3593
     28 N6          0.6577    1.2456    4.7753 N.2       1 <0>        -0.5885
     29 O3          0.2356   -0.8161    5.7788 O.3       1 <0>        -0.4442
     30 O4         -0.9783    3.0297    3.4963 O.3       1 <0>        -0.4481
     31 H5         -0.8470    3.4382   -0.2028 H         1 <0>         0.2283
     32 H6          0.5231   -0.2652   -1.6413 H         1 <0>         0.2674
     33 H7          3.0131    3.6999   -0.2789 H         1 <0>         0.1112
     34 H8          1.5661    4.7260   -0.1310 H         1 <0>         0.1321
     35 H9          5.0280    2.6252    2.8256 H         1 <0>         0.0772
     36 H10         4.5391    2.7824    1.1106 H         1 <0>         0.0703
     37 H11         7.1649    2.8758    1.7526 H         1 <0>         0.0952
     38 H12         6.5185    4.0387    0.5466 H         1 <0>         0.0833
     39 H13         7.0310    4.4815    3.5421 H         1 <0>         0.0973
     40 H14         7.4622    5.5521    2.1684 H         1 <0>         0.0949
     41 H15         5.6568    8.6395    1.5173 H         1 <0>         0.3467
     42 H16         4.8104    7.3798   -0.0547 H         1 <0>         0.3982
     43 H17         0.2298    0.6653    1.9270 H         1 <0>         0.0798
     44 H18         2.0250    0.6883    1.8543 H         1 <0>         0.0875
     45 H19         0.5774   -1.3725    3.0718 H         1 <0>         0.1074
     46 H20         2.2340   -0.9103    3.5762 H         1 <0>         0.1128
     47 H21        -0.0837   -0.3197    6.5447 H         1 <0>         0.4200
     48 H22        -1.2340    2.3220    4.1036 H         1 <0>         0.4154
     49 H23        -1.4620    1.1815   -1.1900 H         1 <0>         0.4681
@<TRIPOS>BOND
     1    1    6 1
     2    1    2 2
     3    1   31 1
     4    2    3 1
     5    2    7 1
     6    3    4 1
     7    3    5 1
     8    5    6 2
     9    5   32 1
    10    6   49 1
    11    7    8 1
    12    7   33 1
    13    7   34 1
    14    8    9 1
    15    8   10 1
    16    8   21 1
    17   10   11 2
    18   10   12 am
    19   12   16 1
    20   12   13 1
    21   13   14 1
    22   13   35 1
    23   13   36 1
    24   14   15 1
    25   14   37 1
    26   14   38 1
    27   15   16 1
    28   15   39 1
    29   15   40 1
    30   16   17 1
    31   16   18 1
    32   18   19 2
    33   18   20 1
    34   19   41 1
    35   20   42 1
    36   21   22 2
    37   22   23 1
    38   22   30 1
    39   23   24 1
    40   23   28 1
    41   23   25 1
    42   25   26 1
    43   25   43 1
    44   25   44 1
    45   26   27 1
    46   26   45 1
    47   26   46 1
    48   27   28 2
    49   27   29 1
    50   29   47 1
    51   30   48 1
@<TRIPOS>MOLECULE
ZINC04096261
   48    50     0     0     0
SMALL
USER_CHARGES

@<TRIPOS>ATOM
      1 C1          0.3935    1.6431   -0.1026 C.2       1 <0>        -0.0061
      2 C2         -0.9035    1.9494    0.0910 C.2       1 <0>        -0.0142
      3 N1         -1.5571    0.7710    0.3315 N.pl3     1 <0>        -0.5604
      4 C3         -0.6361   -0.2151    0.2764 C.2       1 <0>         0.1922
      5 N2          0.5282    0.3139    0.0164 N.2       1 <0>        -0.4846
      6 H1         -2.5049    0.6642    0.5084 H         1 <0>         0.4143
      7 C4         -1.5173    3.3252    0.0511 C.3       1 <0>        -0.0472
      8 C5         -1.8584    3.6897   -1.3951 C.3       1 <0>         0.1456
      9 H2         -2.4957    2.9165   -1.8241 H         1 <0>         0.1067
     10 C6         -2.5834    5.0106   -1.4226 C.2       1 <0>         0.5363
     11 O1         -1.9602    6.0416   -1.5631 O.2       1 <0>        -0.5094
     12 N3         -3.9242    5.0462   -1.2911 N.am      1 <0>        -0.6007
     13 C7         -4.7915    3.8867   -1.0140 C.3       1 <0>         0.0949
     14 C8         -6.0594    4.4877   -0.3575 C.3       1 <0>        -0.1339
     15 C9         -6.2233    5.8111   -1.1505 C.3       1 <0>        -0.1250
     16 C10        -4.7636    6.2489   -1.3938 C.3       1 <0>         0.1176
     17 H3         -4.6697    6.6826   -2.3894 H         1 <0>         0.1056
     18 C11        -4.3472    7.2550   -0.3520 C.2       1 <0>         0.5095
     19 O2         -3.4370    6.9999    0.4078 O.2       1 <0>        -0.5173
     20 N4         -4.9863    8.4384   -0.2646 N.am      1 <0>        -0.8555
     21 N5         -0.6237    3.7940   -2.1767 N.am      1 <0>        -0.7146
     22 C12        -0.0751    2.6896   -2.7206 C.2       1 <0>         0.5034
     23 O3         -0.6037    1.6095   -2.5630 O.2       1 <0>        -0.5009
     24 C13         1.1950    2.7969   -3.5246 C.3       1 <0>         0.1170
     25 H4          1.8841    3.4946   -3.0488 H         1 <0>         0.1135
     26 C14         0.8786    3.2566   -4.9651 C.3       1 <0>        -0.1204
     27 C15         0.7575    1.9057   -5.7077 C.3       1 <0>        -0.1571
     28 C16         1.5868    0.9506   -4.8779 C.2       1 <0>         0.5278
     29 O4          1.9830   -0.1323   -5.2540 O.2       1 <0>        -0.5269
     30 N6          1.8223    1.4772   -3.6616 N.am      1 <0>        -0.7051
     31 H5          1.1856    2.3443   -0.3201 H         1 <0>         0.1534
     32 H6         -0.8308   -1.2672    0.4232 H         1 <0>         0.2028
     33 H7         -2.4264    3.3351    0.6524 H         1 <0>         0.0825
     34 H8         -0.8091    4.0508    0.4513 H         1 <0>         0.0994
     35 H9         -5.0503    3.3763   -1.9417 H         1 <0>         0.0796
     36 H10        -4.2979    3.1994   -0.3269 H         1 <0>         0.0785
     37 H11        -6.9209    3.8359   -0.5028 H         1 <0>         0.0946
     38 H12        -5.8948    4.6847    0.7018 H         1 <0>         0.0807
     39 H13        -6.7389    5.6339   -2.0943 H         1 <0>         0.0941
     40 H14        -6.7523    6.5548   -0.5546 H         1 <0>         0.0902
     41 H15        -5.7142    8.6425   -0.8723 H         1 <0>         0.4008
     42 H16        -4.7182    9.0860    0.4059 H         1 <0>         0.4047
     43 H17        -0.2010    4.6579   -2.3027 H         1 <0>         0.4113
     44 H18        -0.0613    3.8073   -5.0012 H         1 <0>         0.0933
     45 H19         1.6947    3.8536   -5.3721 H         1 <0>         0.0990
     46 H20        -0.2822    1.5797   -5.7393 H         1 <0>         0.1051
     47 H21         1.1637    1.9868   -6.7159 H         1 <0>         0.1071
     48 H22         2.3394    1.0421   -2.9657 H         1 <0>         0.4179
@<TRIPOS>BOND
     1    1    5 1
     2    1   31 1
     3    1    2 2
     4    2    7 1
     5    2    3 1
     6    3    4 1
     7    3    6 1
     8    4   32 1
     9    4    5 2
    10    7    8 1
    11    7   33 1
    12    7   34 1
    13    8    9 1
    14    8   10 1
    15    8   21 1
    16   10   11 2
    17   10   12 am
    18   12   16 1
    19   12   13 1
    20   13   14 1
    21   13   35 1
    22   13   36 1
    23   14   15 1
    24   14   37 1
    25   14   38 1
    26   15   16 1
    27   15   39 1
    28   15   40 1
    29   16   17 1
    30   16   18 1
    31   18   19 2
    32   18   20 am
    33   20   41 1
    34   20   42 1
    35   21   22 am
    36   21   43 1
    37   22   23 2
    38   22   24 1
    39   24   25 1
    40   24   30 1
    41   24   26 1
    42   26   27 1
    43   26   44 1
    44   26   45 1
    45   27   28 1
    46   27   46 1
    47   27   47 1
    48   28   29 2
    49   28   30 am
    50   30   48 1
@<TRIPOS>MOLECULE
ZINC04096261
   49    51     0     0     0
SMALL
USER_CHARGES

@<TRIPOS>ATOM
      1 C1         -0.4334    1.6307    0.1264 C.2       1 <0>         0.0093
      2 C2          0.8539    1.9742   -0.0696 C.2       1 <0>         0.0769
      3 N1          1.5380    0.8166   -0.3259 N.pl3     1 <0>        -0.5037
      4 H1          2.4875    0.7375   -0.5082 H         1 <0>         0.4621
      5 C3          0.6443   -0.1946   -0.2777 C.cat     1 <0>         0.3131
      6 N2         -0.5326    0.2998   -0.0067 N.pl3     1 <0>        -0.4660
      7 C4          1.4304    3.3656   -0.0172 C.3       1 <0>        -0.0687
      8 C5          1.7678    3.7236    1.4316 C.3       1 <0>         0.1387
      9 H2          2.4277    2.9633    1.8495 H         1 <0>         0.1162
     10 C6          2.4568    5.0633    1.4706 C.2       1 <0>         0.5330
     11 O1          1.8066    6.0753    1.6248 O.2       1 <0>        -0.4982
     12 N3          3.7957    5.1367    1.3340 N.am      1 <0>        -0.5976
     13 C7          4.6928    4.0042    1.0408 C.3       1 <0>         0.0946
     14 C8          5.9411    4.6464    0.3858 C.3       1 <0>        -0.1348
     15 C9          6.0725    5.9652    1.1925 C.3       1 <0>        -0.1267
     16 C10         4.6026    6.3605    1.4464 C.3       1 <0>         0.1166
     17 H3          4.5013    6.7807    2.4471 H         1 <0>         0.1098
     18 C11         4.1545    7.3662    0.4174 C.2       1 <0>         0.5124
     19 O2          3.2483    7.0946   -0.3415 O.2       1 <0>        -0.5251
     20 N4          4.7609    8.5674    0.3404 N.am      1 <0>        -0.8516
     21 N5          0.5341    3.7859    2.2192 N.am      1 <0>        -0.7106
     22 C12         0.0181    2.6612    2.7533 C.2       1 <0>         0.5063
     23 O3          0.5750    1.5975    2.5818 O.2       1 <0>        -0.5313
     24 C13        -1.2510    2.7252    3.5635 C.3       1 <0>         0.1140
     25 H4         -1.9609    3.4090    3.0981 H         1 <0>         0.1201
     26 C14        -0.9409    3.1778    5.0076 C.3       1 <0>        -0.1213
     27 C15        -0.7800    1.8228    5.7350 C.3       1 <0>        -0.1588
     28 C16        -1.5868    0.8544    4.8982 C.2       1 <0>         0.5293
     29 O4         -1.9518   -0.2427    5.2641 O.2       1 <0>        -0.5142
     30 N6         -1.8417    1.3876    3.6887 N.am      1 <0>        -0.7164
     31 H5         -1.2431    2.3078    0.3552 H         1 <0>         0.2121
     32 H6          0.8667   -1.2394   -0.4370 H         1 <0>         0.2642
     33 H7          2.3363    3.4065   -0.6220 H         1 <0>         0.1123
     34 H8          0.7011    4.0759   -0.4066 H         1 <0>         0.1270
     35 H9          4.9694    3.4910    1.9618 H         1 <0>         0.0825
     36 H10         4.2151    3.3112    0.3482 H         1 <0>         0.0729
     37 H11         6.8205    4.0167    0.5204 H         1 <0>         0.0978
     38 H12         5.7666    4.8504   -0.6707 H         1 <0>         0.0824
     39 H13         6.5969    5.7918    2.1322 H         1 <0>         0.0972
     40 H14         6.5785    6.7294    0.6025 H         1 <0>         0.0942
     41 H15         5.4857    8.7846    0.9473 H         1 <0>         0.4034
     42 H16         4.4725    9.2147   -0.3220 H         1 <0>         0.4078
     43 H17         0.0887    4.6366    2.3564 H         1 <0>         0.4212
     44 H18        -0.0161    3.7534    5.0460 H         1 <0>         0.0970
     45 H19        -1.7711    3.7480    5.4244 H         1 <0>         0.1055
     46 H20         0.2682    1.5248    5.7589 H         1 <0>         0.1081
     47 H21        -1.1839    1.8819    6.7456 H         1 <0>         0.1137
     48 H22        -2.3498    0.9461    2.9902 H         1 <0>         0.4087
     49 H23        -1.3502   -0.2143    0.0846 H         1 <0>         0.4647
@<TRIPOS>BOND
     1    1    6 1
     2    1    2 2
     3    1   31 1
     4    2    3 1
     5    2    7 1
     6    3    4 1
     7    3    5 1
     8    5    6 2
     9    5   32 1
    10    6   49 1
    11    7    8 1
    12    7   33 1
    13    7   34 1
    14    8    9 1
    15    8   10 1
    16    8   21 1
    17   10   11 2
    18   10   12 am
    19   12   16 1
    20   12   13 1
    21   13   14 1
    22   13   35 1
    23   13   36 1
    24   14   15 1
    25   14   37 1
    26   14   38 1
    27   15   16 1
    28   15   39 1
    29   15   40 1
    30   16   17 1
    31   16   18 1
    32   18   19 2
    33   18   20 am
    34   20   41 1
    35   20   42 1
    36   21   22 am
    37   21   43 1
    38   22   23 2
    39   22   24 1
    40   24   25 1
    41   24   30 1
    42   24   26 1
    43   26   27 1
    44   26   44 1
    45   26   45 1
    46   27   28 1
    47   27   46 1
    48   27   47 1
    49   28   29 2
    50   28   30 am
    51   30   48 1
