@<TRIPOS>MOLECULE
ZINC00020245
   46    48     0     0     0
SMALL
USER_CHARGES

@<TRIPOS>ATOM
      1 C1         -5.6836    1.3838    0.0162 C.3       1 <0>        -0.0473
      2 N1         -5.6620   -0.0833   -0.0564 N.4       1 <0>        -0.3868
      3 C2         -6.3713   -0.5242   -1.2649 C.3       1 <0>        -0.0522
      4 C3         -4.2702   -0.5505   -0.1076 C.3       1 <0>        -0.0086
      5 C4         -4.2434   -2.0795   -0.0575 C.3       1 <0>        -0.1781
      6 C5         -2.7938   -2.5661   -0.1108 C.3       1 <0>         0.1490
      7 N2         -2.7704   -4.0309   -0.1190 N.pl3     1 <0>        -0.6108
      8 C6         -2.7295   -4.7451   -1.3212 C.ar      1 <0>         0.1758
      9 C7         -1.6865   -4.4783   -2.2022 C.ar      1 <0>        -0.1411
     10 C8         -1.5734   -5.1772   -3.3856 C.ar      1 <0>        -0.1022
     11 C9         -2.5089   -6.1508   -3.6854 C.ar      1 <0>        -0.1266
     12 C10        -3.5489   -6.4041   -2.8209 C.ar      1 <0>        -0.1101
     13 C11        -3.6933   -5.6947   -1.6266 C.ar      1 <0>        -0.0998
     14 C12        -4.9357   -6.0340   -0.8354 C.3       1 <0>        -0.0687
     15 C13        -5.1005   -5.1892    0.4158 C.3       1 <0>        -0.0773
     16 C14        -3.9592   -5.4030    1.3779 C.ar      1 <0>        -0.0996
     17 C15        -2.7824   -4.7590    1.0748 C.ar      1 <0>         0.1523
     18 C16        -1.6837   -4.8488    1.9126 C.ar      1 <0>        -0.1184
     19 C17        -1.7825   -5.6251    3.0560 C.ar      1 <0>        -0.1094
     20 C18        -2.9565   -6.2950    3.3488 C.ar      1 <0>        -0.1165
     21 C19        -4.0679   -6.1865    2.5030 C.ar      1 <0>        -0.1028
     22 H1         -6.7163    1.7305    0.0542 H         1 <0>         0.1245
     23 H2         -5.1573    1.7109    0.9129 H         1 <0>         0.1235
     24 H3         -5.1933    1.7984   -0.8646 H         1 <0>         0.1221
     25 H4         -6.3552   -1.6128   -1.3188 H         1 <0>         0.1231
     26 H5         -7.4040   -0.1775   -1.2269 H         1 <0>         0.1246
     27 H6         -5.8810   -0.1096   -2.1457 H         1 <0>         0.1227
     28 H7         -3.8061   -0.2091   -1.0329 H         1 <0>         0.1308
     29 H8         -3.7207   -0.1494    0.7440 H         1 <0>         0.1320
     30 H9         -4.7075   -2.4209    0.8678 H         1 <0>         0.0908
     31 H10        -4.7929   -2.4806   -0.9091 H         1 <0>         0.0915
     32 H11        -2.3174   -2.1901   -1.0161 H         1 <0>         0.0824
     33 H12        -2.2550   -2.1990    0.7627 H         1 <0>         0.0801
     34 H13        -0.9599   -3.7176   -1.9576 H         1 <0>         0.1215
     35 H14        -0.7646   -4.9667   -4.0697 H         1 <0>         0.1276
     36 H15        -2.4229   -6.7145   -4.6025 H         1 <0>         0.1250
     37 H16        -4.2693   -7.1687   -3.0712 H         1 <0>         0.1222
     38 H17        -5.8074   -5.8880   -1.4734 H         1 <0>         0.0793
     39 H18        -4.8898   -7.0837   -0.5452 H         1 <0>         0.0765
     40 H19        -5.1365   -4.1371    0.1334 H         1 <0>         0.0724
     41 H20        -6.0358   -5.4578    0.9068 H         1 <0>         0.0709
     42 H21        -0.7686   -4.3248    1.6795 H         1 <0>         0.1257
     43 H22        -0.9372   -5.7074    3.7231 H         1 <0>         0.1275
     44 H23        -3.0178   -6.9071    4.2365 H         1 <0>         0.1269
     45 H24        -4.9880   -6.7067    2.7249 H         1 <0>         0.1290
     46 H25        -6.1159   -0.4671    0.7589 H         1 <0>         0.4268
@<TRIPOS>BOND
     1    1    2 1
     2    1   22 1
     3    1   23 1
     4    1   24 1
     5    2    3 1
     6    2    4 1
     7    2   46 1
     8    3   25 1
     9    3   26 1
    10    3   27 1
    11    4    5 1
    12    4   28 1
    13    4   29 1
    14    5    6 1
    15    5   30 1
    16    5   31 1
    17    6    7 1
    18    6   32 1
    19    6   33 1
    20    7   17 1
    21    7    8 1
    22    8   13 ar
    23    8    9 ar
    24    9   10 ar
    25    9   34 1
    26   10   11 ar
    27   10   35 1
    28   11   12 ar
    29   11   36 1
    30   12   13 ar
    31   12   37 1
    32   13   14 1
    33   14   15 1
    34   14   38 1
    35   14   39 1
    36   15   16 1
    37   15   40 1
    38   15   41 1
    39   16   21 ar
    40   16   17 ar
    41   17   18 ar
    42   18   19 ar
    43   18   42 1
    44   19   20 ar
    45   19   43 1
    46   20   21 ar
    47   20   44 1
    48   21   45 1
@<TRIPOS>MOLECULE
ZINC01536779
   41    43     0     0     0
SMALL
USER_CHARGES

@<TRIPOS>ATOM
      1 C1         -0.7400    0.9331    0.2776 C.3       1 <0>        -0.0476
      2 N1         -0.4844   -0.5066    0.1362 N.4       1 <0>        -0.5085
      3 C2          0.3213   -0.7448   -1.0688 C.3       1 <0>        -0.0132
      4 C3          0.5875   -2.2442   -1.2161 C.3       1 <0>        -0.1420
      5 C4          1.4267   -2.4924   -2.4711 C.3       1 <0>         0.1856
      6 H1          2.3354   -1.8921   -2.4252 H         1 <0>         0.1031
      7 C5          1.7925   -3.9522   -2.5503 C.2       1 <0>        -0.2178
      8 C6          2.9174   -4.5748   -2.1210 C.2       1 <0>        -0.1229
      9 C7          3.0378   -5.9401   -2.3002 C.2       1 <0>        -0.1690
     10 C8          2.0274   -6.6160   -2.8999 C.2       1 <0>        -0.1537
     11 S1          0.8534   -5.3114   -3.2268 S.3       1 <0>         0.0860
     12 O1          0.6724   -2.1269   -3.6285 O.3       1 <0>        -0.3033
     13 C9          1.3745   -1.7982   -4.7435 C.ar      1 <0>         0.1312
     14 C10         2.7346   -1.9306   -4.7642 C.ar      1 <0>        -0.2054
     15 C11         3.4685   -1.5981   -5.8992 C.ar      1 <0>        -0.0827
     16 C12         2.8540   -1.1319   -7.0215 C.ar      1 <0>        -0.1285
     17 C13         1.4570   -0.9818   -7.0408 C.ar      1 <0>        -0.0223
     18 C14         0.7049   -1.3236   -5.8896 C.ar      1 <0>        -0.0635
     19 C15        -0.6915   -1.1779   -5.9104 C.ar      1 <0>        -0.0959
     20 C16        -1.3040   -0.7161   -7.0351 C.ar      1 <0>        -0.1186
     21 C17        -0.5654   -0.3847   -8.1695 C.ar      1 <0>        -0.1028
     22 C18         0.7904   -0.5031   -8.1819 C.ar      1 <0>        -0.1090
     23 H2          0.2082    1.4637    0.3638 H         1 <0>         0.1241
     24 H3         -1.2800    1.2940   -0.5978 H         1 <0>         0.1247
     25 H4         -1.3378    1.1099    1.1717 H         1 <0>         0.1281
     26 H5          0.0155   -0.8406    0.9465 H         1 <0>         0.4304
     27 H6         -0.2187   -0.3839   -1.9442 H         1 <0>         0.1408
     28 H7          1.2696   -0.2142   -0.9826 H         1 <0>         0.1345
     29 H8          1.1275   -2.6051   -0.3407 H         1 <0>         0.1121
     30 H9         -0.3607   -2.7749   -1.3023 H         1 <0>         0.1048
     31 H10         3.7079   -4.0125   -1.6464 H         1 <0>         0.1341
     32 H11         3.9238   -6.4605   -1.9677 H         1 <0>         0.1404
     33 H12         1.9508   -7.6707   -3.1194 H         1 <0>         0.1916
     34 H13         3.2471   -2.2981   -3.8875 H         1 <0>         0.1267
     35 H14         4.5425   -1.7112   -5.8895 H         1 <0>         0.1280
     36 H15         3.4384   -0.8782   -7.8935 H         1 <0>         0.1327
     37 H16        -1.2767   -1.4311   -5.0388 H         1 <0>         0.1266
     38 H17        -2.3782   -0.6052   -7.0486 H         1 <0>         0.1262
     39 H18        -1.0757   -0.0208   -9.0490 H         1 <0>         0.1287
     40 H19         1.3500   -0.2422   -9.0680 H         1 <0>         0.1339
     41 H20        -1.3622   -0.9977    0.0564 H         1 <0>         0.4321
@<TRIPOS>BOND
     1    1    2 1
     2    1   23 1
     3    1   24 1
     4    1   25 1
     5    2    3 1
     6    2   26 1
     7    2   41 1
     8    3    4 1
     9    3   27 1
    10    3   28 1
    11    4    5 1
    12    4   29 1
    13    4   30 1
    14    5    6 1
    15    5    7 1
    16    5   12 1
    17    7   11 1
    18    7    8 2
    19    8    9 1
    20    8   31 1
    21    9   10 2
    22    9   32 1
    23   10   11 1
    24   10   33 1
    25   12   13 1
    26   13   18 ar
    27   13   14 ar
    28   14   15 ar
    29   14   34 1
    30   15   16 ar
    31   15   35 1
    32   16   17 ar
    33   16   36 1
    34   17   22 ar
    35   17   18 ar
    36   18   19 ar
    37   19   20 ar
    38   19   37 1
    39   20   21 ar
    40   20   38 1
    41   21   22 ar
    42   21   39 1
    43   22   40 1
@<TRIPOS>MOLECULE
ZINC01319785
   47    49     0     0     0
SMALL
USER_CHARGES
ethyl 3-benzoyloxy-8-methyl-8-azabicyclo[3.2.1]octane-2-carboxylate
@<TRIPOS>ATOM
      1 C1          3.9995    4.7104   -3.9821 C.3       1 <0>        -0.1600
      2 C2          2.6475    4.0073   -3.8459 C.3       1 <0>         0.0603
      3 O1          2.1353    4.1996   -2.5009 O.3       1 <0>        -0.3339
      4 C3          0.9485    3.6414   -2.2152 C.2       1 <0>         0.4754
      5 O2          0.3572    3.0129   -3.0610 O.2       1 <0>        -0.5112
      6 C4          0.3535    3.7985   -0.8396 C.3       1 <0>        -0.1077
      7 H1          0.2000    4.8565   -0.6269 H         1 <0>         0.1670
      8 C5         -0.9912    3.0569   -0.7725 C.3       1 <0>         0.0538
      9 H2         -1.7543    3.5340   -1.3875 H         1 <0>         0.1659
     10 C6         -1.4090    2.9688    0.7135 C.3       1 <0>        -0.1406
     11 C7         -0.7571    1.6536    1.2384 C.3       1 <0>        -0.1400
     12 C8         -0.0127    1.0858    0.0080 C.3       1 <0>         0.0253
     13 H3          0.0021   -0.0041    0.0020 H         1 <0>         0.1592
     14 C9         -1.9895    0.9181   -1.4061 C.3       1 <0>        -0.0315
     15 C10         1.4031    1.6841   -0.0023 C.3       1 <0>        -0.1653
     16 C11         1.3029    3.1985    0.2015 C.3       1 <0>         0.0885
     17 H4          2.2910    3.6454    0.0912 H         1 <0>         0.1300
     18 O3          0.7953    3.4741    1.5337 O.3       1 <0>        -0.3351
     19 C12         1.7042    3.6073    2.5190 C.2       1 <0>         0.5048
     20 O4          2.8884    3.4964    2.2721 O.2       1 <0>        -0.4854
     21 C13         1.2608    3.8884    3.8998 C.ar      1 <0>        -0.1389
     22 C14        -0.0993    4.0222    4.1861 C.ar      1 <0>        -0.0679
     23 C15        -0.5067    4.2789    5.4788 C.ar      1 <0>        -0.1307
     24 C16         0.4295    4.4152    6.4884 C.ar      1 <0>        -0.0723
     25 C17         1.7792    4.2895    6.2107 C.ar      1 <0>        -0.1254
     26 C18         2.2002    4.0271    4.9235 C.ar      1 <0>        -0.0496
     27 H5          4.7018    4.2900   -3.2623 H         1 <0>         0.0721
     28 H6          4.3840    4.5661   -4.9917 H         1 <0>         0.0921
     29 H7          3.8760    5.7761   -3.7892 H         1 <0>         0.0733
     30 H8          2.7710    2.9417   -4.0387 H         1 <0>         0.0801
     31 H9          1.9452    4.4278   -4.5657 H         1 <0>         0.0832
     32 H10        -1.0268    3.8268    1.2665 H         1 <0>         0.1318
     33 H11        -2.4942    2.9136    0.7997 H         1 <0>         0.1040
     34 H12        -1.5155    0.9497    1.5811 H         1 <0>         0.0984
     35 H13        -0.0521    1.8731    2.0403 H         1 <0>         0.1217
     36 H14        -2.6302    0.9968   -0.5278 H         1 <0>         0.1187
     37 H15        -2.4995    1.3491   -2.2676 H         1 <0>         0.1250
     38 H16        -1.7688   -0.1312   -1.6019 H         1 <0>         0.1226
     39 H17         1.9907    1.2453    0.8041 H         1 <0>         0.1278
     40 H18         1.8807    1.4754   -0.9596 H         1 <0>         0.1011
     41 H19        -0.8308    3.9204    3.3981 H         1 <0>         0.1338
     42 H20        -1.5587    4.3778    5.7025 H         1 <0>         0.1357
     43 H21         0.1053    4.6202    7.4980 H         1 <0>         0.1358
     44 H22         2.5047    4.3967    7.0035 H         1 <0>         0.1391
     45 H23         3.2539    3.9289    4.7081 H         1 <0>         0.1401
     46 N1         -0.7144    1.6614   -1.1328 N.4       1 <0>        -0.3982
     47 H24        -0.1185    1.6248   -1.9681 H         1 <0>         0.4270
@<TRIPOS>BOND
     1    1    2 1
     2    1   27 1
     3    1   28 1
     4    1   29 1
     5    2    3 1
     6    2   30 1
     7    2   31 1
     8    3    4 1
     9    4    5 2
    10    4    6 1
    11    6    7 1
    12    6   16 1
    13    6    8 1
    14    8    9 1
    15    8   10 1
    16    8   46 1
    17   10   11 1
    18   10   32 1
    19   10   33 1
    20   11   12 1
    21   11   34 1
    22   11   35 1
    23   12   13 1
    24   12   15 1
    25   12   46 1
    26   14   36 1
    27   14   37 1
    28   14   38 1
    29   14   46 1
    30   15   16 1
    31   15   39 1
    32   15   40 1
    33   16   17 1
    34   16   18 1
    35   18   19 1
    36   19   20 2
    37   19   21 1
    38   21   26 ar
    39   21   22 ar
    40   22   23 ar
    41   22   41 1
    42   23   24 ar
    43   23   42 1
    44   24   25 ar
    45   24   43 1
    46   25   26 ar
    47   25   44 1
    48   26   45 1
    49   46   47 1
@<TRIPOS>MOLECULE
ZINC03872127
   47    49     0     0     0
SMALL
USER_CHARGES
ethyl 3-benzoyloxy-8-methyl-8-azabicyclo[3.2.1]octane-2-carboxylate
@<TRIPOS>ATOM
      1 C1          1.4713    1.2435    5.1404 C.3       1 <0>        -0.1576
      2 C2          0.5996    2.1672    4.2873 C.3       1 <0>         0.0656
      3 O1          1.2122    2.3420    2.9825 O.3       1 <0>        -0.3492
      4 C3          0.5682    3.1302    2.1075 C.2       1 <0>         0.4766
      5 O2         -0.4730    3.6567    2.4215 O.2       1 <0>        -0.4845
      6 C4          1.1438    3.3585    0.7336 C.3       1 <0>        -0.1009
      7 H1          2.1273    3.8203    0.8200 H         1 <0>         0.1493
      8 C5          0.2111    4.2800   -0.0664 C.3       1 <0>         0.0454
      9 H2         -0.0324    5.1977    0.4691 H         1 <0>         0.1686
     10 C6         -1.0508    3.4680   -0.4387 C.3       1 <0>        -0.1367
     11 C7         -0.7044    2.7931   -1.7822 C.3       1 <0>        -0.1448
     12 C8          0.7353    3.2588   -2.0997 C.3       1 <0>         0.0300
     13 H3          0.9165    3.3676   -3.1690 H         1 <0>         0.1629
     14 C9          0.1916    5.6336   -2.0920 C.3       1 <0>        -0.0344
     15 C10         1.7065    2.2624   -1.4463 C.3       1 <0>        -0.1582
     16 C11         1.2684    2.0196    0.0008 C.3       1 <0>         0.0839
     17 H4          2.0090    1.3982    0.5044 H         1 <0>         0.1301
     18 O3         -0.0162    1.3429    0.0094 O.3       1 <0>        -0.3402
     19 C12         0.0021   -0.0041    0.0020 C.2       1 <0>         0.5048
     20 O4          1.0621   -0.5970   -0.0113 O.2       1 <0>        -0.4849
     21 C13        -1.2671   -0.7600    0.0101 C.ar      1 <0>        -0.1398
     22 C14        -2.4873   -0.0816    0.0312 C.ar      1 <0>        -0.0678
     23 C15        -3.6687   -0.7938    0.0333 C.ar      1 <0>        -0.1303
     24 C16        -3.6463   -2.1772    0.0257 C.ar      1 <0>        -0.0723
     25 C17        -2.4406   -2.8559    0.0105 C.ar      1 <0>        -0.1255
     26 C18        -1.2518   -2.1562    0.0024 C.ar      1 <0>        -0.0497
     27 H5          1.5630    0.2747    4.6494 H         1 <0>         0.0693
     28 H6          2.4605    1.6855    5.2598 H         1 <0>         0.0708
     29 H7          1.0114    1.1124    6.1199 H         1 <0>         0.0893
     30 H8          0.5078    3.1360    4.7783 H         1 <0>         0.0785
     31 H9         -0.3896    1.7252    4.1679 H         1 <0>         0.0763
     32 H10        -1.2555    2.7150    0.3224 H         1 <0>         0.1284
     33 H11        -1.9079    4.1312   -0.5553 H         1 <0>         0.1006
     34 H12        -1.3907    3.1247   -2.5613 H         1 <0>         0.0963
     35 H13        -0.7387    1.7083   -1.6817 H         1 <0>         0.1215
     36 H14        -0.8684    5.3982   -2.1875 H         1 <0>         0.1207
     37 H15         0.3085    6.5656   -1.5391 H         1 <0>         0.1256
     38 H16         0.6306    5.7420   -3.0838 H         1 <0>         0.1277
     39 H17         2.7154    2.6749   -1.4580 H         1 <0>         0.1130
     40 H18         1.6886    1.3213   -1.9960 H         1 <0>         0.1260
     41 H19        -2.5061    0.9981    0.0418 H         1 <0>         0.1319
     42 H20        -4.6133   -0.2703    0.0452 H         1 <0>         0.1356
     43 H21        -4.5742   -2.7299    0.0320 H         1 <0>         0.1361
     44 H22        -2.4302   -3.9358    0.0046 H         1 <0>         0.1393
     45 H23        -0.3114   -2.6871   -0.0101 H         1 <0>         0.1402
     46 N1          0.8589    4.5135   -1.3524 N.4       1 <0>        -0.3932
     47 H24         1.8492    4.7451   -1.2114 H         1 <0>         0.4261
@<TRIPOS>BOND
     1    1    2 1
     2    1   27 1
     3    1   28 1
     4    1   29 1
     5    2    3 1
     6    2   30 1
     7    2   31 1
     8    3    4 1
     9    4    5 2
    10    4    6 1
    11    6    7 1
    12    6   16 1
    13    6    8 1
    14    8    9 1
    15    8   10 1
    16    8   46 1
    17   10   11 1
    18   10   32 1
    19   10   33 1
    20   11   12 1
    21   11   34 1
    22   11   35 1
    23   12   13 1
    24   12   15 1
    25   12   46 1
    26   14   36 1
    27   14   37 1
    28   14   38 1
    29   14   46 1
    30   15   16 1
    31   15   39 1
    32   15   40 1
    33   16   17 1
    34   16   18 1
    35   18   19 1
    36   19   20 2
    37   19   21 1
    38   21   26 ar
    39   21   22 ar
    40   22   23 ar
    41   22   41 1
    42   23   24 ar
    43   23   42 1
    44   24   25 ar
    45   24   43 1
    46   25   26 ar
    47   25   44 1
    48   26   45 1
    49   46   47 1
@<TRIPOS>MOLECULE
ZINC27408416
   47    49     0     0     0
SMALL
USER_CHARGES
isopropyl (1S,2S,3S,5R)-3-(4-iodophenyl)-8-methyl-8-azabicyclo[3.2.1]octane-2-carboxylate
@<TRIPOS>ATOM
      1 C1         -0.6509    1.4358   -1.2285 C.3       1 <0>        -0.1756
      2 C2          0.1136    0.7575   -0.0899 C.3       1 <0>         0.0835
      3 C3         -0.6238    0.9915    1.2300 C.3       1 <0>        -0.1563
      4 O1          1.4504    1.3177   -0.0034 O.3       1 <0>        -0.3507
      5 C4          2.4092    0.7214   -0.7294 C.2       1 <0>         0.4851
      6 O2          2.1403   -0.2368   -1.4145 O.2       1 <0>        -0.5004
      7 C5          3.8209    1.2472   -0.6900 C.3       1 <0>        -0.1070
      8 H1          3.8653    2.1581   -1.3051 H         1 <0>         0.1431
      9 C6          4.7828    0.1812   -1.2385 C.3       1 <0>         0.0570
     10 H2          4.4644   -0.1623   -2.2338 H         1 <0>         0.1609
     11 C7          4.8896   -0.9460   -0.1857 C.3       1 <0>        -0.2051
     12 C8          6.0401   -0.5095    0.7451 C.3       1 <0>        -0.2088
     13 C9          6.5240    0.8416    0.1700 C.3       1 <0>         0.0446
     14 H3          7.6001    1.0269    0.3028 H         1 <0>         0.1547
     15 N1          6.1413    0.7856   -1.2660 N.4       1 <0>        -0.4063
     16 C10         7.0758   -0.0541   -2.0274 C.3       1 <0>        -0.0502
     17 C11         5.6887    1.9557    0.8209 C.3       1 <0>        -0.1418
     18 C12         4.2087    1.5677    0.7564 C.3       1 <0>        -0.0501
     19 H4          3.5906    2.3965    1.1320 H         1 <0>         0.1350
     20 C13         3.9701    0.3557    1.6196 C.ar      1 <0>        -0.0757
     21 C14         2.9646   -0.5361    1.2960 C.ar      1 <0>        -0.1391
     22 C15         2.7493   -1.6508    2.0844 C.ar      1 <0>        -0.0916
     23 C16         3.5326   -1.8681    3.2031 C.ar      1 <0>        -0.0846
     24 C17         4.5347   -0.9728    3.5298 C.ar      1 <0>        -0.0970
     25 C18         4.7530    0.1390    2.7381 C.ar      1 <0>        -0.1018
     26 I1          3.2019   -3.5538    4.4024 I         1 <0>        -0.0160
     27 H5         -0.1207    1.2675   -2.1775 H         1 <0>         0.0625
     28 H6         -0.7180    2.5161   -1.0325 H         1 <0>         0.0731
     29 H7         -1.6636    1.0114   -1.2940 H         1 <0>         0.0857
     30 H8          0.2342   -0.3182   -0.2855 H         1 <0>         0.0888
     31 H9         -0.0741    0.5038    2.0485 H         1 <0>         0.0676
     32 H10        -1.6365    0.5671    1.1644 H         1 <0>         0.0892
     33 H11        -0.6909    2.0718    1.4260 H         1 <0>         0.0747
     34 H12         3.9368   -1.0322    0.3572 H         1 <0>         0.1647
     35 H13         5.1120   -1.8983   -0.6894 H         1 <0>         0.0968
     36 H14         5.6604   -0.4025    1.7720 H         1 <0>         0.1716
     37 H15         6.8357   -1.2688    0.7256 H         1 <0>         0.0949
     38 H16         8.0706    0.4154   -2.0316 H         1 <0>         0.1261
     39 H17         6.7154   -0.1590   -3.0614 H         1 <0>         0.1234
     40 H18         7.1411   -1.0474   -1.5593 H         1 <0>         0.1177
     41 H19         5.9956    2.0787    1.8700 H         1 <0>         0.1247
     42 H20         5.8498    2.8992    0.2788 H         1 <0>         0.1034
     43 H21         2.3502   -0.3642    0.4246 H         1 <0>         0.1547
     44 H22         1.9664   -2.3497    1.8293 H         1 <0>         0.1380
     45 H23         5.1469   -1.1424    4.4032 H         1 <0>         0.1423
     46 H24         5.5356    0.8383    2.9932 H         1 <0>         0.1472
     47 H25         6.1705    1.7668   -1.7623 H         1 <0>         0.4471
@<TRIPOS>BOND
     1    1    2 1
     2    1   27 1
     3    1   28 1
     4    1   29 1
     5    2    3 1
     6    2    4 1
     7    2   30 1
     8    3   31 1
     9    3   32 1
    10    3   33 1
    11    4    5 1
    12    5    6 2
    13    5    7 1
    14    7    8 1
    15    7   18 1
    16    7    9 1
    17    9   10 1
    18    9   15 1
    19    9   11 1
    20   11   12 1
    21   11   34 1
    22   11   35 1
    23   12   13 1
    24   12   36 1
    25   12   37 1
    26   13   14 1
    27   13   15 1
    28   13   17 1
    29   15   16 1
    30   15   47 1
    31   16   38 1
    32   16   39 1
    33   16   40 1
    34   17   18 1
    35   17   41 1
    36   17   42 1
    37   18   19 1
    38   18   20 1
    39   20   25 ar
    40   20   21 ar
    41   21   22 ar
    42   21   43 1
    43   22   23 ar
    44   22   44 1
    45   23   24 ar
    46   23   26 1
    47   24   25 ar
    48   24   45 1
    49   25   46 1
@<TRIPOS>MOLECULE
ZINC13603629
   25    25     0     0     0
SMALL
USER_CHARGES
2-amino-5-(2-aminoethyl)benzene-1,4-diol
@<TRIPOS>ATOM
      1 C1         -0.0690   -2.7233    1.9383 C.ar      1 <0>        -0.0683
      2 C2          0.8464   -2.0163    1.1798 C.ar      1 <0>        -0.1856
      3 C3          1.7792   -2.6915    0.4073 C.ar      1 <0>         0.1615
      4 C4          1.8038   -4.0781    0.4024 C.ar      1 <0>        -0.2141
      5 C5          0.8871   -4.7890    1.1620 C.ar      1 <0>         0.2295
      6 C6         -0.0527   -4.1075    1.9327 C.ar      1 <0>         0.0213
      7 O1         -0.9535   -4.8021    2.6797 O.3       1 <0>        -0.4890
      8 N1          0.9059   -6.1883    1.1550 N.pl3     1 <0>        -0.8594
      9 O2          2.6742   -1.9935   -0.3416 O.3       1 <0>        -0.5013
     10 C7          0.8260   -0.5095    1.1880 C.3       1 <0>        -0.0858
     11 C8          0.0021   -0.0041    0.0020 C.3       1 <0>        -0.0019
     12 H1         -0.7970   -2.1948    2.5358 H         1 <0>         0.1355
     13 H2          2.5332   -4.6038   -0.1959 H         1 <0>         0.1376
     14 H3         -1.7760   -5.0067    2.2142 H         1 <0>         0.3868
     15 H4          0.2644   -6.6846    1.6870 H         1 <0>         0.4091
     16 H5          1.5605   -6.6618    0.6181 H         1 <0>         0.4061
     17 H6          3.4982   -1.7877    0.1208 H         1 <0>         0.3984
     18 H7          1.8454   -0.1318    1.1095 H         1 <0>         0.0920
     19 H8          0.3787   -0.1573    2.1176 H         1 <0>         0.0914
     20 H9         -1.0174   -0.3817    0.0806 H         1 <0>         0.1302
     21 H10         0.4494   -0.3563   -0.9275 H         1 <0>         0.1381
     22 H11         0.9191    1.8392    0.0032 H         1 <0>         0.4369
     23 H12        -0.5563    1.8234   -0.7642 H         1 <0>         0.4399
     24 N2         -0.0294    1.4689    0.0323 N.4       1 <0>        -0.6470
     25 H13        -0.4837    1.7790    0.8993 H         1 <0>         0.4381
@<TRIPOS>BOND
     1    1    6 ar
     2    1    2 ar
     3    1   12 1
     4    2    3 ar
     5    2   10 1
     6    3    4 ar
     7    3    9 1
     8    4    5 ar
     9    4   13 1
    10    5    6 ar
    11    5    8 1
    12    6    7 1
    13    7   14 1
    14    8   15 1
    15    8   16 1
    16    9   17 1
    17   10   11 1
    18   10   18 1
    19   10   19 1
    20   11   20 1
    21   11   21 1
    22   11   24 1
    23   22   24 1
    24   23   24 1
    25   24   25 1
@<TRIPOS>MOLECULE
ZINC05719749
   40    42     0     0     0
SMALL
USER_CHARGES

@<TRIPOS>ATOM
      1 C1         -0.0178    1.4648    0.0101 C.3       1 <0>        -0.0430
      2 N1          0.0021   -0.0041    0.0020 N.4       1 <0>        -0.3990
      3 C2          0.7720   -0.5069   -1.1648 C.3       1 <0>         0.0015
      4 C3          1.1903   -1.9387   -0.7670 C.3       1 <0>        -0.0522
      5 H1          0.4766   -2.6639   -1.1577 H         1 <0>         0.1303
      6 C4          1.1732   -1.9474    0.7755 C.3       1 <0>        -0.1602
      7 H2          2.1671   -2.1694    1.1639 H         1 <0>         0.1484
      8 C5          0.7459   -0.5201    1.1799 C.3       1 <0>         0.0079
      9 C6          0.1764   -2.9578    1.2821 C.2       1 <0>         0.4064
     10 O1         -0.7629   -3.2837    0.5877 O.2       1 <0>        -0.4334
     11 C7          0.3428   -3.5484    2.6181 C.ar      1 <0>        -0.2022
     12 C8          1.4224   -3.1702    3.4241 C.ar      1 <0>        -0.0441
     13 C9          1.5725   -3.7274    4.6749 C.ar      1 <0>        -0.1649
     14 C10         0.6567   -4.6618    5.1358 C.ar      1 <0>         0.1524
     15 C11        -0.4158   -5.0410    4.3418 C.ar      1 <0>        -0.1637
     16 C12        -0.5810   -4.4869    3.0916 C.ar      1 <0>        -0.0203
     17 F1          0.8101   -5.2052    6.3631 F         1 <0>        -0.1220
     18 C13         2.5752   -2.2406   -1.2789 C.ar      1 <0>        -0.1177
     19 C14         3.6424   -1.4526   -0.8899 C.ar      1 <0>        -0.0886
     20 C15         4.9129   -1.7288   -1.3583 C.ar      1 <0>        -0.1477
     21 C16         5.1168   -2.7952   -2.2175 C.ar      1 <0>         0.1209
     22 C17         4.0472   -3.5838   -2.6064 C.ar      1 <0>        -0.1455
     23 C18         2.7784   -3.3088   -2.1325 C.ar      1 <0>        -0.0677
     24 F2          6.3583   -3.0659   -2.6763 F         1 <0>        -0.1278
     25 H3          1.0047    1.8421    0.0024 H         1 <0>         0.1240
     26 H4         -0.5450    1.8259   -0.8730 H         1 <0>         0.1271
     27 H5         -0.5280    1.8163    0.9069 H         1 <0>         0.1258
     28 H6          0.1431   -0.5280   -2.0547 H         1 <0>         0.1438
     29 H7          1.6524    0.1129   -1.3350 H         1 <0>         0.1400
     30 H8          1.6221    0.0976    1.3767 H         1 <0>         0.1496
     31 H9          0.0972   -0.5512    2.0554 H         1 <0>         0.1410
     32 H10         2.1366   -2.4433    3.0662 H         1 <0>         0.1402
     33 H11         2.4053   -3.4364    5.2980 H         1 <0>         0.1496
     34 H12        -1.1253   -5.7690    4.7065 H         1 <0>         0.1506
     35 H13        -1.4188   -4.7797    2.4762 H         1 <0>         0.1481
     36 H14         3.4831   -0.6206   -0.2200 H         1 <0>         0.1299
     37 H15         5.7464   -1.1128   -1.0545 H         1 <0>         0.1440
     38 H16         4.2050   -4.4157   -3.2768 H         1 <0>         0.1456
     39 H17         1.9447   -3.9265   -2.4322 H         1 <0>         0.1391
     40 H18        -0.9383   -0.3697   -0.0094 H         1 <0>         0.4336
@<TRIPOS>BOND
     1    1    2 1
     2    1   25 1
     3    1   26 1
     4    1   27 1
     5    2    8 1
     6    2    3 1
     7    2   40 1
     8    3    4 1
     9    3   28 1
    10    3   29 1
    11    4    5 1
    12    4    6 1
    13    4   18 1
    14    6    7 1
    15    6    8 1
    16    6    9 1
    17    8   30 1
    18    8   31 1
    19    9   10 2
    20    9   11 1
    21   11   16 ar
    22   11   12 ar
    23   12   13 ar
    24   12   32 1
    25   13   14 ar
    26   13   33 1
    27   14   15 ar
    28   14   17 1
    29   15   16 ar
    30   15   34 1
    31   16   35 1
    32   18   23 ar
    33   18   19 ar
    34   19   20 ar
    35   19   36 1
    36   20   21 ar
    37   20   37 1
    38   21   22 ar
    39   21   24 1
    40   22   23 ar
    41   22   38 1
    42   23   39 1
@<TRIPOS>MOLECULE
ZINC05719749
   39    41     0     0     0
SMALL
USER_CHARGES

@<TRIPOS>ATOM
      1 C1         -0.0178    1.4648    0.0101 C.3       1 <0>         0.0119
      2 N1          0.0021   -0.0041    0.0020 N.3       1 <0>        -0.5108
      3 C2          0.7880   -0.5195   -1.1485 C.3       1 <0>         0.0413
      4 C3          1.1729   -1.9586   -0.7431 C.3       1 <0>        -0.0439
      5 H1          0.4552   -2.6712   -1.1496 H         1 <0>         0.1072
      6 C4          1.1226   -1.9677    0.7986 C.3       1 <0>        -0.1336
      7 H2          2.1040   -2.2071    1.2080 H         1 <0>         0.1075
      8 C5          0.7115   -0.5335    1.1951 C.3       1 <0>         0.0456
      9 C6          0.0980   -2.9610    1.2830 C.2       1 <0>         0.4100
     10 O1         -0.8318   -3.2703    0.5685 O.2       1 <0>        -0.4320
     11 C7          0.2255   -3.5550    2.6217 C.ar      1 <0>        -0.1807
     12 C8          1.2940   -3.1959    3.4510 C.ar      1 <0>        -0.0444
     13 C9          1.4077   -3.7562    4.7042 C.ar      1 <0>        -0.1658
     14 C10         0.4662   -4.6749    5.1446 C.ar      1 <0>         0.1324
     15 C11        -0.5954   -5.0352    4.3276 C.ar      1 <0>        -0.1652
     16 C12        -0.7243   -4.4776    3.0746 C.ar      1 <0>        -0.0303
     17 F1          0.5839   -5.2214    6.3745 F         1 <0>        -0.1317
     18 C13         2.5630   -2.2841   -1.2255 C.ar      1 <0>        -0.0901
     19 C14         3.6351   -1.5149   -0.8131 C.ar      1 <0>        -0.0873
     20 C15         4.9103   -1.8128   -1.2545 C.ar      1 <0>        -0.1502
     21 C16         5.1141   -2.8822   -2.1100 C.ar      1 <0>         0.0980
     22 C17         4.0396   -3.6519   -2.5224 C.ar      1 <0>        -0.1491
     23 C18         2.7659   -3.3553   -2.0755 C.ar      1 <0>        -0.0806
     24 F2          6.3603   -3.1741   -2.5425 F         1 <0>        -0.1385
     25 H3          1.0047    1.8421    0.0024 H         1 <0>         0.0311
     26 H4         -0.5450    1.8259   -0.8730 H         1 <0>         0.0739
     27 H5         -0.5280    1.8163    0.9069 H         1 <0>         0.0720
     28 H6          0.1779   -0.5293   -2.0517 H         1 <0>         0.0896
     29 H7          1.6823    0.0850   -1.2993 H         1 <0>         0.0529
     30 H8          1.5939    0.0689    1.4111 H         1 <0>         0.0598
     31 H9          0.0438   -0.5537    2.0565 H         1 <0>         0.0880
     32 H10         2.0281   -2.4813    3.1090 H         1 <0>         0.1415
     33 H11         2.2318   -3.4800    5.3452 H         1 <0>         0.1438
     34 H12        -1.3251   -5.7509    4.6764 H         1 <0>         0.1441
     35 H13        -1.5537   -4.7556    2.4412 H         1 <0>         0.1455
     36 H14         3.4759   -0.6806   -0.1460 H         1 <0>         0.1294
     37 H15         5.7477   -1.2115   -0.9324 H         1 <0>         0.1365
     38 H16         4.1973   -4.4861   -3.1900 H         1 <0>         0.1376
     39 H17         1.9282   -3.9583   -2.3935 H         1 <0>         0.1349
@<TRIPOS>BOND
     1    1    2 1
     2    1   25 1
     3    1   26 1
     4    1   27 1
     5    2    8 1
     6    2    3 1
     7    3    4 1
     8    3   28 1
     9    3   29 1
    10    4    5 1
    11    4    6 1
    12    4   18 1
    13    6    7 1
    14    6    8 1
    15    6    9 1
    16    8   30 1
    17    8   31 1
    18    9   10 2
    19    9   11 1
    20   11   16 ar
    21   11   12 ar
    22   12   13 ar
    23   12   32 1
    24   13   14 ar
    25   13   33 1
    26   14   15 ar
    27   14   17 1
    28   15   16 ar
    29   15   34 1
    30   16   35 1
    31   18   23 ar
    32   18   19 ar
    33   19   20 ar
    34   19   36 1
    35   20   21 ar
    36   20   37 1
    37   21   22 ar
    38   21   24 1
    39   22   23 ar
    40   22   38 1
    41   23   39 1
@<TRIPOS>MOLECULE
ZINC00002275
   47    49     0     0     0
SMALL
USER_CHARGES
2-[(2-ethoxyphenoxy)-phenyl-methyl]morpholine
@<TRIPOS>ATOM
      1 C1          3.7658   -0.8597   -0.0076 C.3       1 <0>        -0.1535
      2 C2          2.3425   -0.3045   -0.0892 C.3       1 <0>         0.0523
      3 O1          2.3855    1.1235   -0.0552 O.3       1 <0>        -0.3045
      4 C3          1.1955    1.7787   -0.1193 C.ar      1 <0>         0.1159
      5 C4          0.0128    1.0628   -0.2128 C.ar      1 <0>        -0.1686
      6 C5         -1.1955    1.7306   -0.2836 C.ar      1 <0>        -0.1015
      7 C6         -1.2282    3.1124   -0.2507 C.ar      1 <0>        -0.1167
      8 C7         -0.0519    3.8326   -0.1575 C.ar      1 <0>        -0.1897
      9 C8          1.1630    3.1696   -0.0915 C.ar      1 <0>         0.0771
     10 O2          2.3211    3.8766   -0.0002 O.3       1 <0>        -0.2816
     11 C9          2.2230    5.2986   -0.1031 C.3       1 <0>         0.1406
     12 H1          1.2847    5.5637   -0.5904 H         1 <0>         0.1038
     13 C10         3.3775    5.8243   -0.9165 C.ar      1 <0>        -0.1062
     14 C11         4.6184    5.2220   -0.8249 C.ar      1 <0>        -0.0901
     15 C12         5.6763    5.7012   -1.5748 C.ar      1 <0>        -0.1212
     16 C13         5.4957    6.7889   -2.4086 C.ar      1 <0>        -0.1022
     17 C14         4.2562    7.3947   -2.4959 C.ar      1 <0>        -0.1196
     18 C15         3.1971    6.9122   -1.7500 C.ar      1 <0>        -0.0892
     19 C16         2.2627    5.9151    1.2966 C.3       1 <0>         0.0583
     20 H2          3.2001    5.6491    1.7850 H         1 <0>         0.1003
     21 C17         1.0869    5.3857    2.1220 C.3       1 <0>        -0.0472
     22 C18         0.9843    7.4991    3.2957 C.3       1 <0>        -0.0426
     23 C19         2.1611    8.0073    2.4585 C.3       1 <0>         0.0365
     24 O3          2.1645    7.3382    1.1945 O.3       1 <0>        -0.3419
     25 H3          4.3477   -0.4935   -0.8534 H         1 <0>         0.0688
     26 H4          4.2308   -0.5323    0.9223 H         1 <0>         0.0663
     27 H5          3.7330   -1.9489   -0.0335 H         1 <0>         0.0832
     28 H6          1.7605   -0.6707    0.7566 H         1 <0>         0.0639
     29 H7          1.8775   -0.6319   -1.0191 H         1 <0>         0.0657
     30 H8          0.0354   -0.0167   -0.2349 H         1 <0>         0.1409
     31 H9         -2.1164    1.1716   -0.3606 H         1 <0>         0.1340
     32 H10        -2.1745    3.6303   -0.3021 H         1 <0>         0.1318
     33 H11        -0.0799    4.9120   -0.1358 H         1 <0>         0.1335
     34 H12         4.7605    4.3748   -0.1704 H         1 <0>         0.1268
     35 H13         6.6448    5.2282   -1.5063 H         1 <0>         0.1275
     36 H14         6.3231    7.1656   -2.9916 H         1 <0>         0.1277
     37 H15         4.1153    8.2447   -3.1471 H         1 <0>         0.1286
     38 H16         2.2287    7.3855   -1.8182 H         1 <0>         0.1235
     39 H17         0.1521    5.6048    1.6060 H         1 <0>         0.1433
     40 H18         1.1885    4.3081    2.2507 H         1 <0>         0.1473
     41 H19         1.0110    7.9641    4.2811 H         1 <0>         0.1471
     42 H20         0.0479    7.7526    2.7988 H         1 <0>         0.1411
     43 H21         3.0952    7.8021    2.9814 H         1 <0>         0.0832
     44 H22         2.0593    9.0811    2.3017 H         1 <0>         0.1456
     45 N1          1.0862    6.0351    3.4467 N.4       1 <0>        -0.5141
     46 H23         1.9579    5.8045    3.9379 H         1 <0>         0.4340
     47 H24         0.2857    5.6936    3.9915 H         1 <0>         0.4415
@<TRIPOS>BOND
     1    1    2 1
     2    1   25 1
     3    1   26 1
     4    1   27 1
     5    2    3 1
     6    2   28 1
     7    2   29 1
     8    3    4 1
     9    4    9 ar
    10    4    5 ar
    11    5    6 ar
    12    5   30 1
    13    6    7 ar
    14    6   31 1
    15    7    8 ar
    16    7   32 1
    17    8    9 ar
    18    8   33 1
    19    9   10 1
    20   10   11 1
    21   11   12 1
    22   11   13 1
    23   11   19 1
    24   13   18 ar
    25   13   14 ar
    26   14   15 ar
    27   14   34 1
    28   15   16 ar
    29   15   35 1
    30   16   17 ar
    31   16   36 1
    32   17   18 ar
    33   17   37 1
    34   18   38 1
    35   19   20 1
    36   19   24 1
    37   19   21 1
    38   21   39 1
    39   21   40 1
    40   21   45 1
    41   22   23 1
    42   22   41 1
    43   22   42 1
    44   22   45 1
    45   23   24 1
    46   23   43 1
    47   23   44 1
    48   45   46 1
    49   45   47 1
@<TRIPOS>MOLECULE
ZINC00002284
   47    49     0     0     0
SMALL
USER_CHARGES
2-[(2-ethoxyphenoxy)-phenyl-methyl]morpholine
@<TRIPOS>ATOM
      1 C1         -0.2577    1.4416    0.0894 C.3       1 <0>        -0.1513
      2 C2          0.0072   -0.0609   -0.0264 C.3       1 <0>         0.0521
      3 O1          0.6878   -0.5163    1.1447 O.3       1 <0>        -0.3107
      4 C3          1.0003   -1.8386    1.2023 C.ar      1 <0>         0.1096
      5 C4          0.6592   -2.6789    0.1547 C.ar      1 <0>        -0.1731
      6 C5          0.9775   -4.0228    0.2148 C.ar      1 <0>        -0.1022
      7 C6          1.6362   -4.5316    1.3188 C.ar      1 <0>        -0.1164
      8 C7          1.9794   -3.6987    2.3674 C.ar      1 <0>        -0.1622
      9 C8          1.6683   -2.3495    2.3109 C.ar      1 <0>         0.0877
     10 O2          2.0102   -1.5277    3.3391 O.3       1 <0>        -0.2963
     11 C9          2.5815   -2.1403    4.4968 C.3       1 <0>         0.1428
     12 H1          2.1155   -3.1119    4.6611 H         1 <0>         0.0968
     13 C10         4.0630   -2.3224    4.2895 C.ar      1 <0>        -0.1274
     14 C11         4.7994   -1.3355    3.6613 C.ar      1 <0>        -0.0926
     15 C12         6.1592   -1.5006    3.4750 C.ar      1 <0>        -0.1196
     16 C13         6.7808   -2.6567    3.9084 C.ar      1 <0>        -0.1023
     17 C14         6.0436   -3.6456    4.5324 C.ar      1 <0>        -0.1182
     18 C15         4.6846   -3.4787    4.7225 C.ar      1 <0>        -0.0929
     19 C16         2.3431   -1.2476    5.7163 C.3       1 <0>         0.0824
     20 H2          2.8088   -0.2758    5.5526 H         1 <0>         0.1000
     21 C17         0.8381   -1.0639    5.9290 C.3       1 <0>        -0.0381
     22 C18         1.2113   -0.9294    8.3158 C.3       1 <0>        -0.0426
     23 C19         2.7125   -1.1145    8.0792 C.3       1 <0>         0.0381
     24 O3          2.9128   -1.8610    6.8759 O.3       1 <0>        -0.3431
     25 H3          0.6900    1.9710    0.1878 H         1 <0>         0.0669
     26 H4         -0.7768    1.7889   -0.8038 H         1 <0>         0.0825
     27 H5         -0.8748    1.6351    0.9668 H         1 <0>         0.0636
     28 H6         -0.9405   -0.5903   -0.1248 H         1 <0>         0.0637
     29 H7          0.6243   -0.2545   -0.9037 H         1 <0>         0.0650
     30 H8          0.1450   -2.2839   -0.7090 H         1 <0>         0.1386
     31 H9          0.7114   -4.6767   -0.6025 H         1 <0>         0.1326
     32 H10         1.8835   -5.5820    1.3619 H         1 <0>         0.1314
     33 H11         2.4939   -4.0986    3.2286 H         1 <0>         0.1347
     34 H12         4.3130   -0.4340    3.3190 H         1 <0>         0.1240
     35 H13         6.7352   -0.7278    2.9878 H         1 <0>         0.1266
     36 H14         7.8426   -2.7871    3.7599 H         1 <0>         0.1273
     37 H15         6.5293   -4.5489    4.8710 H         1 <0>         0.1280
     38 H16         4.1085   -4.2515    5.2097 H         1 <0>         0.1226
     39 H17         0.4100   -0.5448    5.0715 H         1 <0>         0.1536
     40 H18         0.3642   -2.0394    6.0385 H         1 <0>         0.1408
     41 H19         1.0557   -0.3121    9.2006 H         1 <0>         0.1467
     42 H20         0.7434   -1.9027    8.4634 H         1 <0>         0.1410
     43 H21         3.1891   -0.1387    7.9850 H         1 <0>         0.0834
     44 H22         3.1497   -1.6535    8.9197 H         1 <0>         0.1457
     45 N1          0.6093   -0.2620    7.1460 N.4       1 <0>        -0.5152
     46 H23        -0.4007   -0.1567    7.2979 H         1 <0>         0.4418
     47 H24         1.0359    0.6643    7.0270 H         1 <0>         0.4344
@<TRIPOS>BOND
     1    1    2 1
     2    1   25 1
     3    1   26 1
     4    1   27 1
     5    2    3 1
     6    2   28 1
     7    2   29 1
     8    3    4 1
     9    4    9 ar
    10    4    5 ar
    11    5    6 ar
    12    5   30 1
    13    6    7 ar
    14    6   31 1
    15    7    8 ar
    16    7   32 1
    17    8    9 ar
    18    8   33 1
    19    9   10 1
    20   10   11 1
    21   11   12 1
    22   11   13 1
    23   11   19 1
    24   13   18 ar
    25   13   14 ar
    26   14   15 ar
    27   14   34 1
    28   15   16 ar
    29   15   35 1
    30   16   17 ar
    31   16   36 1
    32   17   18 ar
    33   17   37 1
    34   18   38 1
    35   19   20 1
    36   19   24 1
    37   19   21 1
    38   21   39 1
    39   21   40 1
    40   21   45 1
    41   22   23 1
    42   22   41 1
    43   22   42 1
    44   22   45 1
    45   23   24 1
    46   23   43 1
    47   23   44 1
    48   45   46 1
    49   45   47 1
@<TRIPOS>MOLECULE
ZINC00006923
   47    49     0     0     0
SMALL
USER_CHARGES

@<TRIPOS>ATOM
      1 C1         -0.0241    1.4833   -0.0247 C.3       1 <0>        -0.1532
      2 C2          0.1908   -0.0289   -0.1147 C.3       1 <0>         0.0525
      3 O1          0.8097   -0.4943    1.0863 O.3       1 <0>        -0.3036
      4 C3          1.0721   -1.8261    1.1696 C.ar      1 <0>         0.1113
      5 C4          0.7463   -2.6652    0.1162 C.ar      1 <0>        -0.1682
      6 C5          1.0142   -4.0187    0.2023 C.ar      1 <0>        -0.1050
      7 C6          1.6066   -4.5383    1.3382 C.ar      1 <0>        -0.1148
      8 C7          1.9338   -3.7068    2.3930 C.ar      1 <0>        -0.1943
      9 C8          1.6737   -2.3482    2.3106 C.ar      1 <0>         0.0786
     10 O2          2.0003   -1.5279    3.3449 O.3       1 <0>        -0.2770
     11 C9          2.5664   -2.1407    4.5051 C.3       1 <0>         0.1393
     12 H1          3.0287   -3.0878    4.2269 H         1 <0>         0.1108
     13 C10         3.6090   -1.2277    5.0973 C.ar      1 <0>        -0.1106
     14 C11         3.3847    0.1353    5.1497 C.ar      1 <0>        -0.0647
     15 C12         4.3410    0.9727    5.6930 C.ar      1 <0>        -0.1241
     16 C13         5.5214    0.4471    6.1842 C.ar      1 <0>        -0.1007
     17 C14         5.7453   -0.9160    6.1326 C.ar      1 <0>        -0.1215
     18 C15         4.7872   -1.7539    5.5933 C.ar      1 <0>        -0.1060
     19 C16         1.4653   -2.3942    5.5367 C.3       1 <0>         0.0572
     20 H2          1.8791   -2.9409    6.3840 H         1 <0>         0.1027
     21 C17         0.3443   -3.2164    4.8961 C.3       1 <0>        -0.0524
     22 N1         -0.7378   -3.4087    5.8715 N.4       1 <0>        -0.5031
     23 C18        -1.2628   -2.0996    6.2834 C.3       1 <0>        -0.0459
     24 C19        -0.1388   -1.2794    6.9214 C.3       1 <0>         0.0331
     25 O3          0.9360   -1.1442    5.9874 O.3       1 <0>        -0.3322
     26 H3          0.9375    1.9799    0.1045 H         1 <0>         0.0691
     27 H4         -0.4962    1.8383   -0.9408 H         1 <0>         0.0828
     28 H5         -0.6668    1.7089    0.8262 H         1 <0>         0.0658
     29 H6         -0.7708   -0.5255   -0.2438 H         1 <0>         0.0627
     30 H7          0.8335   -0.2545   -0.9656 H         1 <0>         0.0654
     31 H8          0.2828   -2.2619   -0.7720 H         1 <0>         0.1399
     32 H9          0.7598   -4.6716   -0.6195 H         1 <0>         0.1333
     33 H10         1.8140   -5.5963    1.4018 H         1 <0>         0.1319
     34 H11         2.3962   -4.1153    3.2794 H         1 <0>         0.1343
     35 H12         2.4625    0.5460    4.7660 H         1 <0>         0.1304
     36 H13         4.1661    2.0377    5.7333 H         1 <0>         0.1270
     37 H14         6.2688    1.1014    6.6079 H         1 <0>         0.1274
     38 H15         6.6676   -1.3267    6.5160 H         1 <0>         0.1285
     39 H16         4.9605   -2.8193    5.5563 H         1 <0>         0.1222
     40 H17        -0.0417   -2.6880    4.0244 H         1 <0>         0.1463
     41 H18         0.7346   -4.1870    4.5900 H         1 <0>         0.1464
     42 H19        -1.4776   -3.9507    5.4508 H         1 <0>         0.4367
     43 H20        -1.6482   -1.5716    5.4112 H         1 <0>         0.1412
     44 H21        -2.0655   -2.2411    7.0071 H         1 <0>         0.1470
     45 H22        -0.5153   -0.2920    7.1887 H         1 <0>         0.1438
     46 H23         0.2196   -1.7877    7.8166 H         1 <0>         0.0815
     47 H24        -0.3801   -3.8969    6.6789 H         1 <0>         0.4281
@<TRIPOS>BOND
     1    1    2 1
     2    1   26 1
     3    1   27 1
     4    1   28 1
     5    2    3 1
     6    2   29 1
     7    2   30 1
     8    3    4 1
     9    4    9 ar
    10    4    5 ar
    11    5    6 ar
    12    5   31 1
    13    6    7 ar
    14    6   32 1
    15    7    8 ar
    16    7   33 1
    17    8    9 ar
    18    8   34 1
    19    9   10 1
    20   10   11 1
    21   11   12 1
    22   11   13 1
    23   11   19 1
    24   13   18 ar
    25   13   14 ar
    26   14   15 ar
    27   14   35 1
    28   15   16 ar
    29   15   36 1
    30   16   17 ar
    31   16   37 1
    32   17   18 ar
    33   17   38 1
    34   18   39 1
    35   19   20 1
    36   19   25 1
    37   19   21 1
    38   21   22 1
    39   21   40 1
    40   21   41 1
    41   22   23 1
    42   22   42 1
    43   22   47 1
    44   23   24 1
    45   23   43 1
    46   23   44 1
    47   24   25 1
    48   24   45 1
    49   24   46 1
@<TRIPOS>MOLECULE
ZINC03996032
   47    49     0     0     0
SMALL
USER_CHARGES

@<TRIPOS>ATOM
      1 C1         -0.0138    1.5481    0.0281 C.3       1 <0>        -0.1532
      2 C2         -0.0597    0.0189    0.0504 C.3       1 <0>         0.0524
      3 O1          0.6552   -0.4624    1.1903 O.3       1 <0>        -0.3033
      4 C3          0.7112   -1.8106    1.3598 C.ar      1 <0>         0.1140
      5 C4          0.0966   -2.6515    0.4460 C.ar      1 <0>        -0.1684
      6 C5          0.1549   -4.0217    0.6195 C.ar      1 <0>        -0.1038
      7 C6          0.8252   -4.5563    1.7041 C.ar      1 <0>        -0.1160
      8 C7          1.4402   -3.7230    2.6198 C.ar      1 <0>        -0.1938
      9 C8          1.3908   -2.3489    2.4483 C.ar      1 <0>         0.0788
     10 O2          2.0003   -1.5279    3.3449 O.3       1 <0>        -0.2779
     11 C9          2.5664   -2.1407    4.5051 C.3       1 <0>         0.1400
     12 H1          2.1003   -3.1126    4.6668 H         1 <0>         0.1107
     13 C10         2.3254   -1.2620    5.7055 C.ar      1 <0>        -0.1101
     14 C11         2.3352    0.1135    5.5684 C.ar      1 <0>        -0.0659
     15 C12         2.1141    0.9194    6.6695 C.ar      1 <0>        -0.1231
     16 C13         1.8827    0.3499    7.9076 C.ar      1 <0>        -0.1015
     17 C14         1.8719   -1.0256    8.0446 C.ar      1 <0>        -0.1210
     18 C15         2.0888   -1.8316    6.9427 C.ar      1 <0>        -0.1076
     19 C16         4.0717   -2.3245    4.3017 C.3       1 <0>         0.0579
     20 H2          4.4892   -2.8712    5.1473 H         1 <0>         0.1026
     21 C17         4.3210   -3.1101    3.0119 C.3       1 <0>        -0.0532
     22 N1          5.7680   -3.2348    2.7889 N.4       1 <0>        -0.5032
     23 C18         6.3615   -1.8958    2.6708 C.3       1 <0>        -0.0459
     24 C19         6.1084   -1.1125    3.9614 C.3       1 <0>         0.0331
     25 O3          4.7004   -1.0436    4.2037 O.3       1 <0>        -0.3318
     26 H3          1.0230    1.8797   -0.0267 H         1 <0>         0.0662
     27 H4         -0.5592    1.9152   -0.8414 H         1 <0>         0.0829
     28 H5         -0.4727    1.9387    0.9363 H         1 <0>         0.0689
     29 H6         -1.0966   -0.3127    0.1052 H         1 <0>         0.0653
     30 H7          0.3992   -0.3717   -0.8578 H         1 <0>         0.0631
     31 H8         -0.4283   -2.2364   -0.4017 H         1 <0>         0.1401
     32 H9         -0.3246   -4.6760   -0.0935 H         1 <0>         0.1334
     33 H10         0.8682   -5.6273    1.8364 H         1 <0>         0.1316
     34 H11         1.9628   -4.1432    3.4663 H         1 <0>         0.1320
     35 H12         2.5160    0.5584    4.6011 H         1 <0>         0.1303
     36 H13         2.1225    1.9941    6.5625 H         1 <0>         0.1270
     37 H14         1.7106    0.9796    8.7680 H         1 <0>         0.1273
     38 H15         1.6915   -1.4706    9.0120 H         1 <0>         0.1283
     39 H16         2.0767   -2.9063    7.0489 H         1 <0>         0.1218
     40 H17         3.8797   -4.1029    3.0997 H         1 <0>         0.1465
     41 H18         3.8678   -2.5835    2.1720 H         1 <0>         0.1472
     42 H19         6.1876   -3.7214    3.5670 H         1 <0>         0.4280
     43 H20         7.4350   -1.9872    2.5056 H         1 <0>         0.1470
     44 H21         5.9075   -1.3696    1.8311 H         1 <0>         0.1414
     45 H22         6.5963   -1.6173    4.7952 H         1 <0>         0.0815
     46 H23         6.5101   -0.1043    3.8599 H         1 <0>         0.1438
     47 H24         5.9341   -3.7526    1.9390 H         1 <0>         0.4368
@<TRIPOS>BOND
     1    1    2 1
     2    1   26 1
     3    1   27 1
     4    1   28 1
     5    2    3 1
     6    2   29 1
     7    2   30 1
     8    3    4 1
     9    4    9 ar
    10    4    5 ar
    11    5    6 ar
    12    5   31 1
    13    6    7 ar
    14    6   32 1
    15    7    8 ar
    16    7   33 1
    17    8    9 ar
    18    8   34 1
    19    9   10 1
    20   10   11 1
    21   11   12 1
    22   11   13 1
    23   11   19 1
    24   13   18 ar
    25   13   14 ar
    26   14   15 ar
    27   14   35 1
    28   15   16 ar
    29   15   36 1
    30   16   17 ar
    31   16   37 1
    32   17   18 ar
    33   17   38 1
    34   18   39 1
    35   19   20 1
    36   19   25 1
    37   19   21 1
    38   21   22 1
    39   21   40 1
    40   21   41 1
    41   22   23 1
    42   22   42 1
    43   22   47 1
    44   23   24 1
    45   23   43 1
    46   23   44 1
    47   24   25 1
    48   24   45 1
    49   24   46 1
@<TRIPOS>MOLECULE
ZINC00598412
   41    43     0     0     0
SMALL
USER_CHARGES
methyl 3-(4-iodophenyl)-8-methyl-8-azabicyclo[3.2.1]octane-4-carboxylate
@<TRIPOS>ATOM
      1 C1         -2.8162    0.7064    0.2330 C.3       1 <0>        -0.0354
      2 C2         -1.8992    2.8594    0.9108 C.3       1 <0>         0.0308
      3 H1         -2.7484    2.9369    1.5897 H         1 <0>         0.1599
      4 C3         -0.6427    2.2612    1.5901 C.3       1 <0>        -0.2081
      5 C4          0.0690    1.4715    0.4719 C.3       1 <0>        -0.2064
      6 C5         -0.8182    1.6649   -0.7794 C.3       1 <0>         0.0471
      7 H2         -0.8095    0.7905   -1.4300 H         1 <0>         0.1666
      8 C6         -0.3475    2.9402   -1.4968 C.3       1 <0>        -0.1060
      9 H3         -1.0824    3.2286   -2.2484 H         1 <0>         0.1432
     10 C7         -0.2003    4.0632   -0.4662 C.3       1 <0>        -0.0505
     11 H4          0.0312    4.9972   -0.9782 H         1 <0>         0.1354
     12 C8         -1.5071    4.2215    0.3162 C.3       1 <0>        -0.1427
     13 C9          0.9166    3.7240    0.4870 C.ar      1 <0>        -0.0784
     14 C10         0.8760    4.1828    1.7904 C.ar      1 <0>        -0.1008
     15 C11         1.8976    3.8671    2.6665 C.ar      1 <0>        -0.0964
     16 C12         2.9656    3.1013    2.2359 C.ar      1 <0>        -0.0843
     17 C13         3.0087    2.6473    0.9304 C.ar      1 <0>        -0.0914
     18 C14         1.9844    2.9589    0.0562 C.ar      1 <0>        -0.1387
     19 I1          4.5176    2.6286    3.5614 I         1 <0>        -0.0151
     20 C15         0.9820    2.6854   -2.1590 C.2       1 <0>         0.4848
     21 O1          1.3590    1.5519   -2.3406 O.2       1 <0>        -0.4969
     22 O2          1.7472    3.7175   -2.5472 O.3       1 <0>        -0.3510
     23 C16         3.0151    3.3974   -3.1783 C.3       1 <0>         0.0292
     24 H5         -2.2082    0.2491    1.0136 H         1 <0>         0.1188
     25 H6         -3.8040    0.9385    0.6310 H         1 <0>         0.1278
     26 H7         -2.9148    0.0142   -0.6032 H         1 <0>         0.1245
     27 H8         -0.9312    1.5932    2.4016 H         1 <0>         0.0950
     28 H9          0.0032    3.0560    1.9632 H         1 <0>         0.1683
     29 H10         0.1305    0.4152    0.7337 H         1 <0>         0.0979
     30 H11         1.0656    1.8767    0.2966 H         1 <0>         0.1638
     31 H12        -2.2941    4.5675   -0.3539 H         1 <0>         0.1039
     32 H13        -1.3682    4.9444    1.1201 H         1 <0>         0.1251
     33 H14         0.0439    4.7842    2.1255 H         1 <0>         0.1475
     34 H15         1.8634    4.2215    3.6861 H         1 <0>         0.1426
     35 H16         3.8425    2.0489    0.5939 H         1 <0>         0.1386
     36 H17         2.0180    2.6044   -0.9634 H         1 <0>         0.1537
     37 H18         3.5328    4.3197   -3.4421 H         1 <0>         0.1165
     38 H19         3.6297    2.8208   -2.4870 H         1 <0>         0.0707
     39 H20         2.8347    2.8114   -4.0795 H         1 <0>         0.0750
     40 N1         -2.1338    1.9607   -0.2230 N.4       1 <0>        -0.3896
     41 H21        -2.7182    2.4256   -0.9277 H         1 <0>         0.4251
@<TRIPOS>BOND
     1    1   24 1
     2    1   25 1
     3    1   26 1
     4    1   40 1
     5    2    3 1
     6    2   12 1
     7    2    4 1
     8    2   40 1
     9    4    5 1
    10    4   27 1
    11    4   28 1
    12    5    6 1
    13    5   29 1
    14    5   30 1
    15    6    7 1
    16    6    8 1
    17    6   40 1
    18    8    9 1
    19    8   10 1
    20    8   20 1
    21   10   11 1
    22   10   12 1
    23   10   13 1
    24   12   31 1
    25   12   32 1
    26   13   18 ar
    27   13   14 ar
    28   14   15 ar
    29   14   33 1
    30   15   16 ar
    31   15   34 1
    32   16   17 ar
    33   16   19 1
    34   17   18 ar
    35   17   35 1
    36   18   36 1
    37   20   21 2
    38   20   22 1
    39   22   23 1
    40   23   37 1
    41   23   38 1
    42   23   39 1
    43   40   41 1
@<TRIPOS>MOLECULE
ZINC03872906
   35    37     0     0     0
SMALL
USER_CHARGES

@<TRIPOS>ATOM
      1 C1         -0.0178    1.4648    0.0101 C.3       1 <0>        -0.0525
      2 N1          0.0021   -0.0041    0.0020 N.4       1 <0>        -0.5038
      3 C2         -1.3761   -0.5125    0.0124 C.3       1 <0>         0.0749
      4 H1         -1.9289   -0.0879    0.8504 H         1 <0>         0.1501
      5 C3         -1.3777   -2.0537    0.0958 C.3       1 <0>        -0.1299
      6 C4         -1.4270   -2.4659   -1.3908 C.3       1 <0>        -0.0166
      7 H2         -0.4182   -2.6139   -1.7759 H         1 <0>         0.1086
      8 C5         -2.0957   -1.3084   -2.1009 C.ar      1 <0>        -0.0630
      9 C6         -2.0672   -0.1835   -1.2934 C.ar      1 <0>        -0.1667
     10 C7         -2.6255    1.0025   -1.7393 C.ar      1 <0>        -0.0801
     11 C8         -3.2115    1.0686   -2.9886 C.ar      1 <0>        -0.1116
     12 C9         -3.2414   -0.0523   -3.7966 C.ar      1 <0>        -0.0775
     13 C10        -2.6831   -1.2424   -3.3529 C.ar      1 <0>        -0.0937
     14 C11        -2.2395   -3.7241   -1.5579 C.ar      1 <0>        -0.0782
     15 C12        -3.5690   -3.7435   -1.1790 C.ar      1 <0>        -0.0929
     16 C13        -4.3151   -4.8969   -1.3312 C.ar      1 <0>        -0.0928
     17 C14        -3.7317   -6.0328   -1.8634 C.ar      1 <0>        -0.0256
     18 C15        -2.4005   -6.0133   -2.2432 C.ar      1 <0>        -0.0294
     19 C16        -1.6566   -4.8563   -2.0949 C.ar      1 <0>        -0.0903
     20 Cl1        -1.6668   -7.4381   -2.9107 Cl        1 <0>        -0.0332
     21 Cl2        -4.6682   -7.4821   -2.0544 Cl        1 <0>        -0.0321
     22 H3          1.0047    1.8421    0.0024 H         1 <0>         0.1282
     23 H4         -0.5450    1.8259   -0.8730 H         1 <0>         0.1233
     24 H5         -0.5280    1.8163    0.9069 H         1 <0>         0.1251
     25 H6          0.4744   -0.3295   -0.8281 H         1 <0>         0.4282
     26 H7         -0.4652   -2.4171    0.5685 H         1 <0>         0.1062
     27 H8         -2.2596   -2.4121    0.6267 H         1 <0>         0.1225
     28 H9         -2.6025    1.8788   -1.1085 H         1 <0>         0.1313
     29 H10        -3.6461    1.9952   -3.3334 H         1 <0>         0.1396
     30 H11        -3.6993   -0.0024   -4.7734 H         1 <0>         0.1394
     31 H12        -2.7065   -2.1190   -3.9833 H         1 <0>         0.1333
     32 H13        -4.0248   -2.8569   -0.7634 H         1 <0>         0.1360
     33 H14        -5.3534   -4.9115   -1.0344 H         1 <0>         0.1477
     34 H15        -0.6192   -4.8392   -2.3948 H         1 <0>         0.1440
     35 H16         0.4901   -0.3383    0.8195 H         1 <0>         0.4316
@<TRIPOS>BOND
     1    1    2 1
     2    1   22 1
     3    1   23 1
     4    1   24 1
     5    2    3 1
     6    2   25 1
     7    2   35 1
     8    3    4 1
     9    3    9 1
    10    3    5 1
    11    5    6 1
    12    5   26 1
    13    5   27 1
    14    6    7 1
    15    6    8 1
    16    6   14 1
    17    8   13 ar
    18    8    9 ar
    19    9   10 ar
    20   10   11 ar
    21   10   28 1
    22   11   12 ar
    23   11   29 1
    24   12   13 ar
    25   12   30 1
    26   13   31 1
    27   14   19 ar
    28   14   15 ar
    29   15   16 ar
    30   15   32 1
    31   16   17 ar
    32   16   33 1
    33   17   18 ar
    34   17   21 1
    35   18   19 ar
    36   18   20 1
    37   19   34 1
@<TRIPOS>MOLECULE
ZINC28016618
   38    40     0     0     0
SMALL
USER_CHARGES
methyl (1S,2S,3S,5R)-3-(4-iodophenyl)-8-azabicyclo[3.2.1]octane-2-carboxylate
@<TRIPOS>ATOM
      1 C1          1.8402    3.9910    4.8111 C.3       1 <0>         0.0238
      2 O1          2.0930    4.7913    3.6262 O.3       1 <0>        -0.3646
      3 C2          2.2156    4.1345    2.4620 C.2       1 <0>         0.4740
      4 O2          2.1150    2.9308    2.4340 O.2       1 <0>        -0.4785
      5 C3          2.4786    4.8985    1.1900 C.3       1 <0>        -0.1019
      6 H1          3.5493    4.8123    0.9529 H         1 <0>         0.1456
      7 C4          2.0884    6.3725    1.3846 C.3       1 <0>         0.0447
      8 H2          2.5848    6.7983    2.2691 H         1 <0>         0.1644
      9 C5          0.5449    6.4513    1.4275 C.3       1 <0>        -0.2091
     10 C6          0.1169    6.6213   -0.0450 C.3       1 <0>        -0.2116
     11 C7          1.4405    6.6297   -0.8438 C.3       1 <0>         0.0504
     12 H3          1.4179    7.2615   -1.7440 H         1 <0>         0.1560
     13 N1          2.4567    7.0943    0.1376 N.4       1 <0>        -0.5440
     14 C8          1.7837    5.1744   -1.2005 C.3       1 <0>        -0.1421
     15 C9          1.6375    4.3088    0.0543 C.3       1 <0>        -0.0477
     16 H4          1.9710    3.2829   -0.1610 H         1 <0>         0.1330
     17 C10         0.1897    4.2702    0.4707 C.ar      1 <0>        -0.0773
     18 C11        -0.1421    4.1200    1.8043 C.ar      1 <0>        -0.1343
     19 C12        -1.4699    4.0845    2.1865 C.ar      1 <0>        -0.0934
     20 C13        -2.4666    4.1946    1.2342 C.ar      1 <0>        -0.0843
     21 C14        -2.1344    4.3501   -0.0992 C.ar      1 <0>        -0.0975
     22 C15        -0.8064    4.3855   -0.4809 C.ar      1 <0>        -0.1013
     23 I1         -4.4794    4.1329    1.8122 I         1 <0>        -0.0153
     24 H5          1.7621    4.6497    5.6886 H         1 <0>         0.1179
     25 H6          2.6679    3.2815    4.9577 H         1 <0>         0.0771
     26 H7          0.8992    3.4356    4.6845 H         1 <0>         0.0725
     27 H8          0.1425    5.5254    1.8644 H         1 <0>         0.1631
     28 H9          0.2385    7.3103    2.0425 H         1 <0>         0.0991
     29 H10        -0.5303    5.7815   -0.3380 H         1 <0>         0.1704
     30 H11        -0.4342    7.5663   -0.1599 H         1 <0>         0.0965
     31 H12         2.4048    8.1790    0.3129 H         1 <0>         0.4565
     32 H13         1.0966    4.8165   -1.9814 H         1 <0>         0.1251
     33 H14         2.8184    5.1217   -1.5702 H         1 <0>         0.1039
     34 H15         0.6364    4.0299    2.5475 H         1 <0>         0.1517
     35 H16        -1.7290    3.9664    3.2283 H         1 <0>         0.1380
     36 H17        -2.9126    4.4399   -0.8428 H         1 <0>         0.1427
     37 H18        -0.5470    4.5029   -1.5227 H         1 <0>         0.1472
     38 H19         3.4802    6.8190   -0.1568 H         1 <0>         0.4495
@<TRIPOS>BOND
     1    1    2 1
     2    1   24 1
     3    1   25 1
     4    1   26 1
     5    2    3 1
     6    3    4 2
     7    3    5 1
     8    5    6 1
     9    5   15 1
    10    5    7 1
    11    7    8 1
    12    7   13 1
    13    7    9 1
    14    9   10 1
    15    9   27 1
    16    9   28 1
    17   10   11 1
    18   10   29 1
    19   10   30 1
    20   11   12 1
    21   11   13 1
    22   11   14 1
    23   13   31 1
    24   13   38 1
    25   14   15 1
    26   14   32 1
    27   14   33 1
    28   15   16 1
    29   15   17 1
    30   17   22 ar
    31   17   18 ar
    32   18   19 ar
    33   18   34 1
    34   19   20 ar
    35   19   35 1
    36   20   21 ar
    37   20   23 1
    38   21   22 ar
    39   21   36 1
    40   22   37 1
@<TRIPOS>MOLECULE
ZINC33744856
   38    40     0     0     0
SMALL
USER_CHARGES
methyl (1S,2R,3S,5R)-3-(4-iodophenyl)-8-azabicyclo[3.2.1]octane-2-carboxylate
@<TRIPOS>ATOM
      1 C1          0.0478   -0.0270   -0.2278 C.3       1 <0>         0.0254
      2 O1          0.0155    1.4246   -0.2273 O.3       1 <0>        -0.3540
      3 C2          1.1936    2.0604   -0.1292 C.2       1 <0>         0.4359
      4 O2          2.2179    1.4249   -0.0465 O.2       1 <0>        -0.4738
      5 C3          1.2387    3.5667   -0.1222 C.3       1 <0>        -0.1024
      6 H1          0.8105    3.9274   -1.0691 H         1 <0>         0.1574
      7 C4          0.4301    4.1004    1.0712 C.3       1 <0>         0.0490
      8 H2         -0.6417    3.8854    0.9490 H         1 <0>         0.1634
      9 C5          0.7586    5.6027    1.2310 C.3       1 <0>        -0.2060
     10 C6          1.9909    5.6412    2.1586 C.3       1 <0>        -0.2086
     11 C7          2.2950    4.1587    2.4749 C.3       1 <0>         0.0486
     12 H3          2.7118    3.9864    3.4782 H         1 <0>         0.1532
     13 N1          0.9879    3.4718    2.2981 N.4       1 <0>        -0.5484
     14 C8          3.2517    3.6337    1.3924 C.3       1 <0>        -0.1495
     15 C9          2.6901    4.0358    0.0131 C.3       1 <0>        -0.0406
     16 H4          3.2926    3.5811   -0.7871 H         1 <0>         0.1283
     17 C10         2.7473    5.5353   -0.1252 C.ar      1 <0>        -0.0748
     18 C11         1.8189    6.1928   -0.9106 C.ar      1 <0>        -0.1102
     19 C12         1.8676    7.5687   -1.0331 C.ar      1 <0>        -0.0952
     20 C13         2.8518    8.2866   -0.3784 C.ar      1 <0>        -0.0852
     21 C14         3.7838    7.6281    0.4028 C.ar      1 <0>        -0.0963
     22 C15         3.7314    6.2526    0.5290 C.ar      1 <0>        -0.1018
     23 I1          2.9312   10.3713   -0.5706 I         1 <0>        -0.0163
     24 H5         -0.9774   -0.4165   -0.3128 H         1 <0>         0.1173
     25 H6          0.4991   -0.3840    0.7097 H         1 <0>         0.0711
     26 H7          0.6461   -0.3801   -1.0806 H         1 <0>         0.0765
     27 H8          0.9776    6.0371    0.2444 H         1 <0>         0.1692
     28 H9         -0.1031    6.1211    1.6767 H         1 <0>         0.1000
     29 H10         2.8284    6.1262    1.6357 H         1 <0>         0.1712
     30 H11         1.7476    6.2101    3.0681 H         1 <0>         0.0965
     31 H12         0.3050    3.6466    3.1425 H         1 <0>         0.4566
     32 H13         4.2481    4.0765    1.5376 H         1 <0>         0.1230
     33 H14         3.3230    2.5385    1.4659 H         1 <0>         0.1095
     34 H15         1.0528    5.6317   -1.4251 H         1 <0>         0.1424
     35 H16         1.1394    8.0828   -1.6429 H         1 <0>         0.1415
     36 H17         4.5523    8.1885    0.9144 H         1 <0>         0.1417
     37 H18         4.4592    5.7383    1.1390 H         1 <0>         0.1462
     38 H19         1.1016    2.3897    2.1365 H         1 <0>         0.4394
@<TRIPOS>BOND
     1    1    2 1
     2    1   24 1
     3    1   25 1
     4    1   26 1
     5    2    3 1
     6    3    4 2
     7    3    5 1
     8    5    6 1
     9    5   15 1
    10    5    7 1
    11    7    8 1
    12    7   13 1
    13    7    9 1
    14    9   10 1
    15    9   27 1
    16    9   28 1
    17   10   11 1
    18   10   29 1
    19   10   30 1
    20   11   12 1
    21   11   13 1
    22   11   14 1
    23   13   31 1
    24   13   38 1
    25   14   15 1
    26   14   32 1
    27   14   33 1
    28   15   16 1
    29   15   17 1
    30   17   22 ar
    31   17   18 ar
    32   18   19 ar
    33   18   34 1
    34   19   20 ar
    35   19   35 1
    36   20   21 ar
    37   20   23 1
    38   21   22 ar
    39   21   36 1
    40   22   37 1
@<TRIPOS>MOLECULE
ZINC13530804
   42    44     0     0     0
SMALL
USER_CHARGES
4-[(S)-(2-fluorophenoxy)-phenyl-methyl]piperidine
@<TRIPOS>ATOM
      1 C1         -0.1884    0.9303   -0.5766 C.ar      1 <0>        -0.1048
      2 C2          0.9164    1.7612   -0.5712 C.ar      1 <0>        -0.1178
      3 C3          2.1803    1.2295   -0.3965 C.ar      1 <0>        -0.0983
      4 C4          2.3396   -0.1332   -0.2271 C.ar      1 <0>        -0.1320
      5 C5          1.2348   -0.9641   -0.2320 C.ar      1 <0>        -0.1082
      6 C6         -0.0292   -0.4323   -0.4067 C.ar      1 <0>        -0.1141
      7 C7          3.7175   -0.7129   -0.0365 C.3       1 <0>         0.1355
      8 H1          3.7207   -1.7549   -0.3562 H         1 <0>         0.0917
      9 C8          4.1051   -0.6316    1.4413 C.3       1 <0>        -0.0858
     10 C9          4.1087    0.8325    1.8896 C.3       1 <0>        -0.1490
     11 C10         4.5559    0.9124    3.3510 C.3       1 <0>        -0.0018
     12 C11         5.9118   -1.0809    3.1050 C.3       1 <0>        -0.0002
     13 C12         5.5051   -1.2203    1.6363 C.3       1 <0>        -0.1475
     14 O1          4.6579    0.0277   -0.8170 O.3       1 <0>        -0.3009
     15 C13         4.7921   -0.3276   -2.1225 C.ar      1 <0>         0.0911
     16 C14         3.9571   -1.2898   -2.6698 C.ar      1 <0>        -0.1755
     17 C15         4.0923   -1.6463   -3.9980 C.ar      1 <0>        -0.0872
     18 C16         5.0658   -1.0521   -4.7797 C.ar      1 <0>        -0.1184
     19 C17         5.9036   -0.0957   -4.2367 C.ar      1 <0>        -0.1152
     20 C18         5.7696    0.2686   -2.9090 C.ar      1 <0>         0.0700
     21 F1          6.5887    1.2025   -2.3778 F         1 <0>        -0.1346
     22 H2         -1.1754    1.3451   -0.7180 H         1 <0>         0.1279
     23 H3          0.7920    2.8258   -0.7039 H         1 <0>         0.1269
     24 H4          3.0434    1.8786   -0.3923 H         1 <0>         0.1249
     25 H5          1.3592   -2.0287   -0.0996 H         1 <0>         0.1236
     26 H6         -0.8923   -1.0815   -0.4109 H         1 <0>         0.1286
     27 H7          3.3870   -1.1944    2.0377 H         1 <0>         0.1075
     28 H8          4.7981    1.4022    1.2664 H         1 <0>         0.0987
     29 H9          3.1044    1.2451    1.7933 H         1 <0>         0.1171
     30 H10         3.8584    0.3540    3.9753 H         1 <0>         0.1294
     31 H11         4.5733    1.9549    3.6689 H         1 <0>         0.1332
     32 H12         5.2079   -1.6300    3.7305 H         1 <0>         0.1300
     33 H13         6.9140   -1.4862    3.2444 H         1 <0>         0.1336
     34 H14         5.4984   -2.2744    1.3590 H         1 <0>         0.1121
     35 H15         6.2163   -0.6834    1.0086 H         1 <0>         0.0985
     36 H16         3.1990   -1.7578   -2.0594 H         1 <0>         0.1367
     37 H17         3.4394   -2.3931   -4.4250 H         1 <0>         0.1357
     38 H18         5.1721   -1.3359   -5.8163 H         1 <0>         0.1395
     39 H19         6.6632    0.3670   -4.8494 H         1 <0>         0.1458
     40 N1          5.9102    0.3437    3.4887 N.4       1 <0>        -0.5171
     41 H20         6.2163    0.4314    4.4648 H         1 <0>         0.4362
     42 H21         6.5568    0.8587    2.8796 H         1 <0>         0.4339
@<TRIPOS>BOND
     1    1    6 ar
     2    1    2 ar
     3    1   22 1
     4    2    3 ar
     5    2   23 1
     6    3    4 ar
     7    3   24 1
     8    4    5 ar
     9    4    7 1
    10    5    6 ar
    11    5   25 1
    12    6   26 1
    13    7    8 1
    14    7    9 1
    15    7   14 1
    16    9   13 1
    17    9   10 1
    18    9   27 1
    19   10   11 1
    20   10   28 1
    21   10   29 1
    22   11   30 1
    23   11   31 1
    24   11   40 1
    25   12   13 1
    26   12   32 1
    27   12   33 1
    28   12   40 1
    29   13   34 1
    30   13   35 1
    31   14   15 1
    32   15   20 ar
    33   15   16 ar
    34   16   17 ar
    35   16   36 1
    36   17   18 ar
    37   17   37 1
    38   18   19 ar
    39   18   38 1
    40   19   20 ar
    41   19   39 1
    42   20   21 1
    43   40   41 1
    44   40   42 1
@<TRIPOS>MOLECULE
ZINC13530807
   42    44     0     0     0
SMALL
USER_CHARGES
4-[(R)-(2-fluorophenoxy)-phenyl-methyl]piperidine
@<TRIPOS>ATOM
      1 C1          1.3194    2.6625   -0.1742 C.ar      1 <0>        -0.1046
      2 C2          0.2835    1.7483   -0.1287 C.ar      1 <0>        -0.1153
      3 C3         -1.0254    2.1891   -0.0717 C.ar      1 <0>        -0.0919
      4 C4         -1.2980    3.5441   -0.0492 C.ar      1 <0>        -0.1332
      5 C5         -0.2622    4.4584   -0.0951 C.ar      1 <0>        -0.1125
      6 C6          1.0465    4.0176   -0.1574 C.ar      1 <0>        -0.1162
      7 C7         -2.7247    4.0247    0.0192 C.3       1 <0>         0.1380
      8 H1         -2.7445    5.0548    0.3751 H         1 <0>         0.0864
      9 C8         -3.3540    3.9541   -1.3736 C.3       1 <0>        -0.0909
     10 C9         -2.5647    4.8443   -2.3374 C.3       1 <0>        -0.1435
     11 C10        -3.2352    4.8186   -3.7129 C.3       1 <0>         0.0005
     12 C11        -5.4075    4.4298   -2.7117 C.3       1 <0>        -0.0012
     13 C12        -4.8027    4.4451   -1.3060 C.3       1 <0>        -0.1451
     14 O1         -3.4639    3.1959    0.9185 O.3       1 <0>        -0.2970
     15 C13        -3.3958    3.5054    2.2406 C.ar      1 <0>         0.0906
     16 C14        -2.5450    4.5101    2.6758 C.ar      1 <0>        -0.1774
     17 C15        -2.4805    4.8260    4.0195 C.ar      1 <0>        -0.0890
     18 C16        -3.2557    4.1348    4.9322 C.ar      1 <0>        -0.1187
     19 C17        -4.1018    3.1291    4.5031 C.ar      1 <0>        -0.1149
     20 C18        -4.1740    2.8118    3.1586 C.ar      1 <0>         0.0724
     21 F1         -5.0000    1.8284    2.7391 F         1 <0>        -0.1317
     22 H2          2.3418    2.3181   -0.2232 H         1 <0>         0.1280
     23 H3          0.4967    0.6896   -0.1421 H         1 <0>         0.1277
     24 H4         -1.8349    1.4748   -0.0407 H         1 <0>         0.1255
     25 H5         -0.4754    5.5171   -0.0821 H         1 <0>         0.1214
     26 H6          1.8558    4.7319   -0.1933 H         1 <0>         0.1280
     27 H7         -3.3347    2.9243   -1.7302 H         1 <0>         0.1028
     28 H8         -2.5504    5.8666   -1.9596 H         1 <0>         0.0918
     29 H9         -1.5435    4.4728   -2.4224 H         1 <0>         0.1189
     30 H10        -3.2358    3.7984   -4.0966 H         1 <0>         0.1315
     31 H11        -2.6845    5.4636   -4.3975 H         1 <0>         0.1353
     32 H12        -5.3979    3.4114   -3.1001 H         1 <0>         0.1316
     33 H13        -6.4345    4.7924   -2.6692 H         1 <0>         0.1346
     34 H14        -5.3795    3.7886   -0.6545 H         1 <0>         0.1205
     35 H15        -4.8247    5.4610   -0.9115 H         1 <0>         0.0891
     36 H16        -1.9359    5.0480    1.9645 H         1 <0>         0.1354
     37 H17        -1.8206    5.6111    4.3578 H         1 <0>         0.1350
     38 H18        -3.2000    4.3808    5.9823 H         1 <0>         0.1394
     39 H19        -4.7063    2.5906    5.2180 H         1 <0>         0.1464
     40 N1         -4.6226    5.3076   -3.6006 N.4       1 <0>        -0.5173
     41 H20        -5.0540    5.3183   -4.5323 H         1 <0>         0.4374
     42 H21        -4.6156    6.2595   -3.2157 H         1 <0>         0.4322
@<TRIPOS>BOND
     1    1    6 ar
     2    1    2 ar
     3    1   22 1
     4    2    3 ar
     5    2   23 1
     6    3    4 ar
     7    3   24 1
     8    4    5 ar
     9    4    7 1
    10    5    6 ar
    11    5   25 1
    12    6   26 1
    13    7    8 1
    14    7    9 1
    15    7   14 1
    16    9   13 1
    17    9   10 1
    18    9   27 1
    19   10   11 1
    20   10   28 1
    21   10   29 1
    22   11   30 1
    23   11   31 1
    24   11   40 1
    25   12   13 1
    26   12   32 1
    27   12   33 1
    28   12   40 1
    29   13   34 1
    30   13   35 1
    31   14   15 1
    32   15   20 ar
    33   15   16 ar
    34   16   17 ar
    35   16   36 1
    36   17   18 ar
    37   17   37 1
    38   18   19 ar
    39   18   38 1
    40   19   20 ar
    41   19   39 1
    42   20   21 1
    43   40   41 1
    44   40   42 1
@<TRIPOS>MOLECULE
ZINC00025764
   42    44     0     0     0
SMALL
USER_CHARGES
4-[(4-fluorophenoxy)-phenyl-methyl]piperidine
@<TRIPOS>ATOM
      1 C1         -4.0221   -0.7238    1.8648 C.ar      1 <0>        -0.1046
      2 C2         -2.8507   -1.0569    2.5189 C.ar      1 <0>        -0.1138
      3 C3         -1.7113   -0.2987    2.3250 C.ar      1 <0>        -0.1082
      4 C4         -1.7431    0.7926    1.4771 C.ar      1 <0>        -0.1322
      5 C5         -2.9159    1.1288    0.8270 C.ar      1 <0>        -0.0992
      6 C6         -4.0540    0.3675    1.0169 C.ar      1 <0>        -0.1184
      7 C7         -0.5010    1.6194    1.2660 C.3       1 <0>         0.1356
      8 H1          0.1920    1.4509    2.0903 H         1 <0>         0.0906
      9 C8          0.1642    1.2136   -0.0506 C.3       1 <0>        -0.0865
     10 C9         -0.7567    1.5684   -1.2214 C.3       1 <0>        -0.1495
     11 C10        -0.0599    1.2150   -2.5373 C.3       1 <0>        -0.0024
     12 C11         2.1206    1.6003   -1.5529 C.3       1 <0>        -0.0007
     13 C12         1.4890    1.9652   -0.2076 C.3       1 <0>        -0.1472
     14 O1         -0.8530    3.0034    1.2151 O.3       1 <0>        -0.3048
     15 C13        -0.9693    3.6549    2.4026 C.ar      1 <0>         0.1125
     16 C14        -1.1893    5.0242    2.4246 C.ar      1 <0>        -0.1194
     17 C15        -1.3133    5.6839    3.6321 C.ar      1 <0>        -0.1136
     18 C16        -1.2064    4.9808    4.8200 C.ar      1 <0>         0.0725
     19 C17        -0.9806    3.6149    4.7996 C.ar      1 <0>        -0.1127
     20 C18        -0.8623    2.9517    3.5935 C.ar      1 <0>        -0.1728
     21 F1         -1.3228    5.6280    6.0002 F         1 <0>        -0.1346
     22 H2         -4.9125   -1.3159    2.0166 H         1 <0>         0.1279
     23 H3         -2.8259   -1.9092    3.1816 H         1 <0>         0.1286
     24 H4         -0.7962   -0.5587    2.8363 H         1 <0>         0.1234
     25 H5         -2.9420    1.9840    0.1680 H         1 <0>         0.1257
     26 H6         -4.9693    0.6279    0.5061 H         1 <0>         0.1269
     27 H7          0.3526    0.1400   -0.0478 H         1 <0>         0.1069
     28 H8         -1.6852    1.0036   -1.1381 H         1 <0>         0.1179
     29 H9         -0.9762    2.6358   -1.2011 H         1 <0>         0.0995
     30 H10        -0.7072    1.4796   -3.3734 H         1 <0>         0.1332
     31 H11         0.1469    0.1451   -2.5627 H         1 <0>         0.1293
     32 H12         3.0571    2.1447   -1.6741 H         1 <0>         0.1337
     33 H13         2.3171    0.5285   -1.5831 H         1 <0>         0.1300
     34 H14         1.3047    3.0389   -0.1713 H         1 <0>         0.0979
     35 H15         2.1649    1.6839    0.6000 H         1 <0>         0.1123
     36 H16        -1.2679    5.5737    1.4982 H         1 <0>         0.1399
     37 H17        -1.4898    6.7492    3.6495 H         1 <0>         0.1460
     38 H18        -0.8974    3.0676    5.7269 H         1 <0>         0.1409
     39 H19        -0.6869    1.8861    3.5778 H         1 <0>         0.1365
     40 N1          1.2039    1.9679   -2.6489 N.4       1 <0>        -0.5169
     41 H20         1.0039    2.9737   -2.5995 H         1 <0>         0.4333
     42 H21         1.6484    1.7511   -3.5487 H         1 <0>         0.4364
@<TRIPOS>BOND
     1    1    6 ar
     2    1    2 ar
     3    1   22 1
     4    2    3 ar
     5    2   23 1
     6    3    4 ar
     7    3   24 1
     8    4    5 ar
     9    4    7 1
    10    5    6 ar
    11    5   25 1
    12    6   26 1
    13    7    8 1
    14    7    9 1
    15    7   14 1
    16    9   13 1
    17    9   10 1
    18    9   27 1
    19   10   11 1
    20   10   28 1
    21   10   29 1
    22   11   30 1
    23   11   31 1
    24   11   40 1
    25   12   13 1
    26   12   32 1
    27   12   33 1
    28   12   40 1
    29   13   34 1
    30   13   35 1
    31   14   15 1
    32   15   20 ar
    33   15   16 ar
    34   16   17 ar
    35   16   36 1
    36   17   18 ar
    37   17   37 1
    38   18   19 ar
    39   18   21 1
    40   19   20 ar
    41   19   38 1
    42   20   39 1
    43   40   41 1
    44   40   42 1
@<TRIPOS>MOLECULE
ZINC13530884
   42    44     0     0     0
SMALL
USER_CHARGES
4-[(S)-(4-fluorophenoxy)-phenyl-methyl]piperidine
@<TRIPOS>ATOM
      1 C1         -1.3420    2.4036    6.3250 C.ar      1 <0>        -0.1051
      2 C2         -0.3520    3.0894    5.6464 C.ar      1 <0>        -0.1140
      3 C3          0.0741    2.6434    4.4093 C.ar      1 <0>        -0.1088
      4 C4         -0.4901    1.5118    3.8506 C.ar      1 <0>        -0.1320
      5 C5         -1.4841    0.8293    4.5266 C.ar      1 <0>        -0.0985
      6 C6         -1.9063    1.2721    5.7662 C.ar      1 <0>        -0.1181
      7 C7         -0.0259    1.0258    2.5018 C.3       1 <0>         0.1356
      8 H1          0.9927    1.3699    2.3224 H         1 <0>         0.0910
      9 C8         -0.9498    1.5787    1.4148 C.3       1 <0>        -0.0862
     10 C9         -0.4791    1.0856    0.0437 C.3       1 <0>        -0.1468
     11 C10        -1.4411    1.5915   -1.0337 C.3       1 <0>        -0.0009
     12 C11        -3.2876    1.5954    0.5356 C.3       1 <0>        -0.0023
     13 C12        -2.3808    1.0896    1.6598 C.3       1 <0>        -0.1483
     14 O1         -0.0581   -0.4025    2.4731 O.3       1 <0>        -0.3049
     15 C13         1.0233   -1.0545    2.9766 C.ar      1 <0>         0.1125
     16 C14         2.0460   -0.3386    3.5813 C.ar      1 <0>        -0.1724
     17 C15         3.1415   -1.0030    4.0980 C.ar      1 <0>        -0.1127
     18 C16         3.2245   -2.3817    4.0020 C.ar      1 <0>         0.0726
     19 C17         2.2073   -3.0970    3.3933 C.ar      1 <0>        -0.1137
     20 C18         1.1077   -2.4357    2.8811 C.ar      1 <0>        -0.1194
     21 F1          4.2988   -3.0297    4.5032 F         1 <0>        -0.1346
     22 H2         -1.6745    2.7517    7.2918 H         1 <0>         0.1277
     23 H3          0.0888    3.9735    6.0829 H         1 <0>         0.1284
     24 H4          0.8476    3.1792    3.8792 H         1 <0>         0.1233
     25 H5         -1.9280   -0.0522    4.0881 H         1 <0>         0.1255
     26 H6         -2.6795    0.7361    6.2965 H         1 <0>         0.1268
     27 H7         -0.9286    2.6683    1.4370 H         1 <0>         0.1067
     28 H8         -0.4633   -0.0042    0.0347 H         1 <0>         0.0988
     29 H9          0.5228    1.4658   -0.1555 H         1 <0>         0.1121
     30 H10        -1.4460    2.6815   -1.0333 H         1 <0>         0.1298
     31 H11        -1.1163    1.2301   -2.0093 H         1 <0>         0.1336
     32 H12        -3.2839    2.6853    0.5286 H         1 <0>         0.1293
     33 H13        -4.3038    1.2367    0.6997 H         1 <0>         0.1331
     34 H14        -2.7377    1.4732    2.6156 H         1 <0>         0.1171
     35 H15        -2.3954   -0.0002    1.6767 H         1 <0>         0.0985
     36 H16         1.9838    0.7373    3.6520 H         1 <0>         0.1365
     37 H17         3.9356   -0.4463    4.5735 H         1 <0>         0.1409
     38 H18         2.2732   -4.1724    3.3190 H         1 <0>         0.1460
     39 H19         0.3141   -2.9939    2.4070 H         1 <0>         0.1399
     40 N1         -2.8013    1.0888   -0.7619 N.4       1 <0>        -0.5169
     41 H20        -2.7844    0.0625   -0.7394 H         1 <0>         0.4333
     42 H21        -3.4336    1.4045   -1.5067 H         1 <0>         0.4363
@<TRIPOS>BOND
     1    1    6 ar
     2    1    2 ar
     3    1   22 1
     4    2    3 ar
     5    2   23 1
     6    3    4 ar
     7    3   24 1
     8    4    5 ar
     9    4    7 1
    10    5    6 ar
    11    5   25 1
    12    6   26 1
    13    7    8 1
    14    7    9 1
    15    7   14 1
    16    9   13 1
    17    9   10 1
    18    9   27 1
    19   10   11 1
    20   10   28 1
    21   10   29 1
    22   11   30 1
    23   11   31 1
    24   11   40 1
    25   12   13 1
    26   12   32 1
    27   12   33 1
    28   12   40 1
    29   13   34 1
    30   13   35 1
    31   14   15 1
    32   15   20 ar
    33   15   16 ar
    34   16   17 ar
    35   16   36 1
    36   17   18 ar
    37   17   37 1
    38   18   19 ar
    39   18   21 1
    40   19   20 ar
    41   19   38 1
    42   20   39 1
    43   40   41 1
    44   40   42 1
@<TRIPOS>MOLECULE
ZINC00025765
   42    44     0     0     0
SMALL
USER_CHARGES
4-[(3-fluorophenoxy)-phenyl-methyl]piperidine
@<TRIPOS>ATOM
      1 C1          2.3038   -0.1249   -0.2734 C.ar      1 <0>        -0.1041
      2 C2          1.0909   -0.7846   -0.2046 C.ar      1 <0>        -0.1171
      3 C3         -0.0842   -0.0627   -0.1107 C.ar      1 <0>        -0.1091
      4 C4         -0.0465    1.3189   -0.0857 C.ar      1 <0>        -0.1108
      5 C5          1.1663    1.9786   -0.1541 C.ar      1 <0>        -0.0903
      6 C6          2.3414    1.2567   -0.2484 C.ar      1 <0>        -0.1172
      7 C7         -1.3281    2.1060    0.0098 C.3       1 <0>         0.1349
      8 H1         -2.1634    1.4794   -0.3028 H         1 <0>         0.0938
      9 C8         -1.5425    2.5578    1.4557 C.3       1 <0>        -0.1143
     10 C9         -1.6318    1.3309    2.3673 C.3       1 <0>        -0.1436
     11 C10        -1.9085    1.7864    3.8020 C.3       1 <0>        -0.0004
     12 C11        -3.0860    3.7520    3.0131 C.3       1 <0>        -0.0005
     13 C12        -2.8460    3.3551    1.5547 C.3       1 <0>        -0.1525
     14 O1         -1.2478    3.2518   -0.8404 O.3       1 <0>        -0.2942
     15 C13        -2.3708    3.5907   -1.5266 C.ar      1 <0>         0.1542
     16 C14        -3.5559    2.9046   -1.3020 C.ar      1 <0>        -0.2330
     17 C15        -4.6978    3.2528   -1.9969 C.ar      1 <0>        -0.0476
     18 C16        -4.6594    4.2781   -2.9236 C.ar      1 <0>        -0.1860
     19 C17        -3.4773    4.9614   -3.1542 C.ar      1 <0>         0.1495
     20 C18        -2.3324    4.6187   -2.4565 C.ar      1 <0>        -0.1878
     21 F1         -3.4416    5.9625   -4.0608 F         1 <0>        -0.1263
     22 H2          3.2218   -0.6889   -0.3471 H         1 <0>         0.1285
     23 H3          1.0615   -1.8641   -0.2245 H         1 <0>         0.1289
     24 H4         -1.0318   -0.5781   -0.0573 H         1 <0>         0.1220
     25 H5          1.1958    3.0580   -0.1348 H         1 <0>         0.1271
     26 H6          3.2890    1.7721   -0.3025 H         1 <0>         0.1285
     27 H7         -0.7075    3.1845    1.7692 H         1 <0>         0.1032
     28 H8         -2.4417    0.6844    2.0292 H         1 <0>         0.0908
     29 H9         -0.6900    0.7832    2.3337 H         1 <0>         0.1193
     30 H10        -1.0910    2.4207    4.1447 H         1 <0>         0.1313
     31 H11        -1.9881    0.9143    4.4509 H         1 <0>         0.1350
     32 H12        -2.2629    4.3771    3.3595 H         1 <0>         0.1313
     33 H13        -4.0208    4.3074    3.0892 H         1 <0>         0.1345
     34 H14        -2.7711    4.2527    0.9409 H         1 <0>         0.1165
     35 H15        -3.6755    2.7414    1.2034 H         1 <0>         0.0927
     36 H16        -3.5864    2.1010   -0.5811 H         1 <0>         0.1332
     37 H17        -5.6206    2.7207   -1.8192 H         1 <0>         0.1383
     38 H18        -5.5525    4.5462   -3.4685 H         1 <0>         0.1421
     39 H19        -1.4102    5.1516   -2.6356 H         1 <0>         0.1465
     40 N1         -3.1758    2.5405    3.8502 N.4       1 <0>        -0.5169
     41 H20        -3.3702    2.8136    4.8207 H         1 <0>         0.4376
     42 H21        -3.9370    1.9452    3.5031 H         1 <0>         0.4319
@<TRIPOS>BOND
     1    1    6 ar
     2    1    2 ar
     3    1   22 1
     4    2    3 ar
     5    2   23 1
     6    3    4 ar
     7    3   24 1
     8    4    5 ar
     9    4    7 1
    10    5    6 ar
    11    5   25 1
    12    6   26 1
    13    7    8 1
    14    7    9 1
    15    7   14 1
    16    9   13 1
    17    9   10 1
    18    9   27 1
    19   10   11 1
    20   10   28 1
    21   10   29 1
    22   11   30 1
    23   11   31 1
    24   11   40 1
    25   12   13 1
    26   12   32 1
    27   12   33 1
    28   12   40 1
    29   13   34 1
    30   13   35 1
    31   14   15 1
    32   15   20 ar
    33   15   16 ar
    34   16   17 ar
    35   16   36 1
    36   17   18 ar
    37   17   37 1
    38   18   19 ar
    39   18   38 1
    40   19   20 ar
    41   19   21 1
    42   20   39 1
    43   40   41 1
    44   40   42 1
@<TRIPOS>MOLECULE
ZINC13530851
   42    44     0     0     0
SMALL
USER_CHARGES
4-[(S)-(3-fluorophenoxy)-phenyl-methyl]piperidine
@<TRIPOS>ATOM
      1 C1         -3.7135   -2.0485    0.4475 C.ar      1 <0>        -0.1048
      2 C2         -2.9790   -1.6998    1.5654 C.ar      1 <0>        -0.1135
      3 C3         -1.7744   -1.0371    1.4218 C.ar      1 <0>        -0.1082
      4 C4         -1.3046   -0.7226    0.1604 C.ar      1 <0>        -0.1325
      5 C5         -2.0419   -1.0663   -0.9573 C.ar      1 <0>        -0.0989
      6 C6         -3.2437   -1.7341   -0.8140 C.ar      1 <0>        -0.1181
      7 C7          0.0084    0.0003    0.0039 C.3       1 <0>         0.1343
      8 H1          0.6357   -0.1931    0.8741 H         1 <0>         0.0914
      9 C8         -0.2483    1.5039   -0.1157 C.3       1 <0>        -0.0862
     10 C9         -1.1228    1.7777   -1.3423 C.3       1 <0>        -0.1483
     11 C10        -1.3256    3.2872   -1.4915 C.3       1 <0>        -0.0023
     12 C11         0.8183    3.7357   -0.4548 C.3       1 <0>        -0.0006
     13 C12         1.0851    2.2396   -0.2747 C.3       1 <0>        -0.1470
     14 O1          0.6709   -0.4649   -1.1737 O.3       1 <0>        -0.3023
     15 C13         1.4145   -1.5964   -1.0570 C.ar      1 <0>         0.1529
     16 C14         2.1734   -2.0427   -2.1297 C.ar      1 <0>        -0.1606
     17 C15         2.9293   -3.1926   -2.0098 C.ar      1 <0>        -0.0488
     18 C16         2.9309   -3.9002   -0.8221 C.ar      1 <0>        -0.1839
     19 C17         2.1752   -3.4576    0.2506 C.ar      1 <0>         0.1423
     20 C18         1.4204   -2.3033    0.1359 C.ar      1 <0>        -0.2415
     21 F1          2.1788   -4.1499    1.4107 F         1 <0>        -0.1316
     22 H2         -4.6543   -2.5670    0.5596 H         1 <0>         0.1280
     23 H3         -3.3460   -1.9455    2.5509 H         1 <0>         0.1287
     24 H4         -1.2005   -0.7647    2.2952 H         1 <0>         0.1232
     25 H5         -1.6769   -0.8167   -1.9427 H         1 <0>         0.1257
     26 H6         -3.8174   -2.0068   -1.6874 H         1 <0>         0.1271
     27 H7         -0.7557    1.8592    0.7812 H         1 <0>         0.1072
     28 H8         -0.6322    1.3866   -2.2337 H         1 <0>         0.0986
     29 H9         -2.0901    1.2914   -1.2156 H         1 <0>         0.1174
     30 H10        -1.8287    3.6753   -0.6058 H         1 <0>         0.1294
     31 H11        -1.9360    3.4862   -2.3723 H         1 <0>         0.1333
     32 H12         0.3052    4.1217    0.4260 H         1 <0>         0.1299
     33 H13         1.7650    4.2606   -0.5826 H         1 <0>         0.1338
     34 H14         1.6954    2.0832    0.6148 H         1 <0>         0.1122
     35 H15         1.6108    1.8553   -1.1488 H         1 <0>         0.0989
     36 H16         2.1734   -1.4908   -3.0580 H         1 <0>         0.1367
     37 H17         3.5200   -3.5393   -2.8449 H         1 <0>         0.1443
     38 H18         3.5226   -4.7990   -0.7306 H         1 <0>         0.1416
     39 H19         0.8340   -1.9554    0.9735 H         1 <0>         0.1394
     40 N1         -0.0180    3.9515   -1.6509 N.4       1 <0>        -0.5168
     41 H20        -0.1645    4.9590   -1.7839 H         1 <0>         0.4363
     42 H21         0.4604    3.5638   -2.4726 H         1 <0>         0.4333
@<TRIPOS>BOND
     1    1    6 ar
     2    1    2 ar
     3    1   22 1
     4    2    3 ar
     5    2   23 1
     6    3    4 ar
     7    3   24 1
     8    4    5 ar
     9    4    7 1
    10    5    6 ar
    11    5   25 1
    12    6   26 1
    13    7    8 1
    14    7    9 1
    15    7   14 1
    16    9   13 1
    17    9   10 1
    18    9   27 1
    19   10   11 1
    20   10   28 1
    21   10   29 1
    22   11   30 1
    23   11   31 1
    24   11   40 1
    25   12   13 1
    26   12   32 1
    27   12   33 1
    28   12   40 1
    29   13   34 1
    30   13   35 1
    31   14   15 1
    32   15   20 ar
    33   15   16 ar
    34   16   17 ar
    35   16   36 1
    36   17   18 ar
    37   17   37 1
    38   18   19 ar
    39   18   38 1
    40   19   20 ar
    41   19   21 1
    42   20   39 1
    43   40   41 1
    44   40   42 1
@<TRIPOS>MOLECULE
ZINC01530611
   43    45     0     0     0
SMALL
USER_CHARGES

@<TRIPOS>ATOM
      1 C1         -5.6811    1.3607   -0.3895 C.3       1 <0>        -0.0475
      2 N1         -5.6577   -0.0983   -0.2206 N.4       1 <0>        -0.5096
      3 C2         -4.2653   -0.5656   -0.1914 C.3       1 <0>        -0.0084
      4 C3         -4.2409   -2.0853   -0.0155 C.3       1 <0>        -0.1794
      5 C4         -2.7907   -2.5720    0.0149 C.3       1 <0>         0.1487
      6 N2         -2.7680   -4.0325    0.1272 N.pl3     1 <0>        -0.6107
      7 C5         -2.6913   -4.8424   -1.0108 C.ar      1 <0>         0.1751
      8 C6         -1.6220   -4.6466   -1.8788 C.ar      1 <0>        -0.1410
      9 C7         -1.4736   -5.4397   -2.9971 C.ar      1 <0>        -0.1023
     10 C8         -2.4002   -6.4363   -3.2444 C.ar      1 <0>        -0.1264
     11 C9         -3.4660   -6.6200   -2.3938 C.ar      1 <0>        -0.1102
     12 C10        -3.6460   -5.8156   -1.2664 C.ar      1 <0>        -0.0994
     13 C11        -4.9119   -6.0915   -0.4880 C.3       1 <0>        -0.0689
     14 C12        -5.1138   -5.1475    0.6844 C.3       1 <0>        -0.0774
     15 C13        -4.0023   -5.2798    1.6948 C.ar      1 <0>        -0.0996
     16 C14        -2.8165   -4.6605    1.3756 C.ar      1 <0>         0.1518
     17 C15        -1.7436   -4.6795    2.2507 C.ar      1 <0>        -0.1184
     18 C16        -1.8773   -5.3599    3.4502 C.ar      1 <0>        -0.1095
     19 C17        -3.0600   -6.0057    3.7614 C.ar      1 <0>        -0.1164
     20 C18        -4.1454   -5.9689    2.8764 C.ar      1 <0>        -0.1028
     21 H1         -6.7143    1.7075   -0.4111 H         1 <0>         0.1266
     22 H2         -5.1573    1.8313    0.4426 H         1 <0>         0.1238
     23 H3         -5.1891    1.6261   -1.3252 H         1 <0>         0.1238
     24 H4         -6.1131   -0.3440    0.6456 H         1 <0>         0.4303
     25 H5         -3.7733   -0.3002   -1.1272 H         1 <0>         0.1329
     26 H6         -3.7415   -0.0951    0.6406 H         1 <0>         0.1330
     27 H7         -4.7329   -2.3506    0.9203 H         1 <0>         0.0915
     28 H8         -4.7647   -2.5558   -0.8475 H         1 <0>         0.0913
     29 H9         -2.2869   -2.2703   -0.9034 H         1 <0>         0.0828
     30 H10        -2.2782   -2.1337    0.8713 H         1 <0>         0.0803
     31 H11        -0.9026   -3.8672   -1.6754 H         1 <0>         0.1215
     32 H12        -0.6444   -5.2844   -3.6715 H         1 <0>         0.1277
     33 H13        -2.2869   -7.0730   -4.1093 H         1 <0>         0.1251
     34 H14        -4.1790   -7.4039   -2.6024 H         1 <0>         0.1223
     35 H15        -5.7638   -5.9997   -1.1617 H         1 <0>         0.0796
     36 H16        -4.8754   -7.1138   -0.1117 H         1 <0>         0.0764
     37 H17        -5.1407   -4.1220    0.3160 H         1 <0>         0.0728
     38 H18        -6.0638   -5.3767    1.1673 H         1 <0>         0.0709
     39 H19        -0.8216   -4.1746    2.0032 H         1 <0>         0.1257
     40 H20        -1.0526   -5.3858    4.1470 H         1 <0>         0.1276
     41 H21        -3.1485   -6.5434    4.6939 H         1 <0>         0.1270
     42 H22        -5.0720   -6.4709    3.1123 H         1 <0>         0.1291
     43 H23        -6.1426   -0.5339   -0.9908 H         1 <0>         0.4303
@<TRIPOS>BOND
     1    1    2 1
     2    1   21 1
     3    1   22 1
     4    1   23 1
     5    2    3 1
     6    2   24 1
     7    2   43 1
     8    3    4 1
     9    3   25 1
    10    3   26 1
    11    4    5 1
    12    4   27 1
    13    4   28 1
    14    5    6 1
    15    5   29 1
    16    5   30 1
    17    6   16 1
    18    6    7 1
    19    7   12 ar
    20    7    8 ar
    21    8    9 ar
    22    8   31 1
    23    9   10 ar
    24    9   32 1
    25   10   11 ar
    26   10   33 1
    27   11   12 ar
    28   11   34 1
    29   12   13 1
    30   13   14 1
    31   13   35 1
    32   13   36 1
    33   14   15 1
    34   14   37 1
    35   14   38 1
    36   15   20 ar
    37   15   16 ar
    38   16   17 ar
    39   17   18 ar
    40   17   39 1
    41   18   19 ar
    42   18   40 1
    43   19   20 ar
    44   19   41 1
    45   20   42 1
@<TRIPOS>MOLECULE
ZINC13613346
   70    73     0     0     0
SMALL
USER_CHARGES
1-(5-acetyl-4-methyl-thiazol-2-yl)-3-[(1R,2S)-2-[[(3S)-3-[(4-fluorophenyl)methyl]-1-piperidyl]methyl]cyclohexyl]urea
@<TRIPOS>ATOM
      1 C1         -5.6728    3.5355   10.4423 C.3       1 <0>        -0.0985
      2 C2         -4.6582    2.4944   10.0451 C.2       1 <0>         0.1933
      3 C3         -3.7716    1.9589   10.9773 C.2       1 <0>        -0.3113
      4 S1         -2.8609    0.8186    9.9455 S.3       1 <0>         0.1442
      5 C4         -3.6901    1.1481    8.4559 C.2       1 <0>         0.3169
      6 N1         -4.5788    2.0630    8.8160 N.2       1 <0>        -0.5137
      7 N2         -3.4800    0.5913    7.2086 N.am      1 <0>        -0.6248
      8 C5         -4.2380    0.9759    6.1626 C.2       1 <0>         0.6890
      9 O1         -5.1064    1.8126    6.3164 O.2       1 <0>        -0.4745
     10 N3         -4.0331    0.4330    4.9462 N.am      1 <0>        -0.7457
     11 C6         -4.8570    0.8510    3.8092 C.3       1 <0>         0.1464
     12 H1         -5.0943    1.9108    3.9027 H         1 <0>         0.1167
     13 C7         -6.1528    0.0378    3.7921 C.3       1 <0>        -0.1315
     14 C8         -7.0133    0.4744    2.6047 C.3       1 <0>        -0.1229
     15 C9         -6.2447    0.2367    1.3032 C.3       1 <0>        -0.1247
     16 C10        -4.9489    1.0500    1.3204 C.3       1 <0>        -0.1077
     17 C11        -4.0884    0.6134    2.5078 C.3       1 <0>        -0.1184
     18 H2         -3.8511   -0.4464    2.4143 H         1 <0>         0.1014
     19 C12        -2.7926    1.4266    2.5249 C.3       1 <0>        -0.0042
     20 C13        -1.3448   -0.3944    3.1945 C.3       1 <0>        -0.0167
     21 C14        -0.5437   -0.9679    4.3656 C.3       1 <0>        -0.1472
     22 C15         0.5823    0.0038    4.7329 C.3       1 <0>        -0.1376
     23 C16        -0.0241    1.3672    5.0765 C.3       1 <0>        -0.1063
     24 H3         -0.6734    1.2679    5.9463 H         1 <0>         0.0863
     25 C17        -0.8401    1.8730    3.8848 C.3       1 <0>        -0.0032
     26 C18         1.0969    2.3613    5.3868 C.3       1 <0>        -0.0692
     27 C19         1.8243    1.9254    6.6325 C.ar      1 <0>        -0.1091
     28 C20         1.4045    2.3751    7.8705 C.ar      1 <0>        -0.0849
     29 C21         2.0679    1.9722    9.0140 C.ar      1 <0>        -0.1488
     30 C22         3.1598    1.1261    8.9185 C.ar      1 <0>         0.1092
     31 C23         3.5825    0.6806    7.6776 C.ar      1 <0>        -0.1504
     32 C24         2.9144    1.0806    6.5359 C.ar      1 <0>        -0.0842
     33 F1          3.8119    0.7354   10.0353 F         1 <0>        -0.1325
     34 C25        -3.6351    2.2352   12.3519 C.2       1 <0>         0.4350
     35 O2         -4.3618    3.0514   12.8826 O.2       1 <0>        -0.4405
     36 C26        -2.5875    1.5183   13.1641 C.3       1 <0>        -0.1890
     37 H4         -6.5941    3.0442   10.7553 H         1 <0>         0.0902
     38 H5         -5.2797    4.1299   11.2671 H         1 <0>         0.1003
     39 H6         -5.8785    4.1855    9.5918 H         1 <0>         0.0817
     40 H7         -2.7871   -0.0763    7.0859 H         1 <0>         0.4219
     41 H8         -3.3401   -0.2346    4.8235 H         1 <0>         0.3858
     42 H9         -6.7004    0.2071    4.7192 H         1 <0>         0.0818
     43 H10        -5.9155   -1.0220    3.6986 H         1 <0>         0.0717
     44 H11        -7.2506    1.5341    2.6981 H         1 <0>         0.0725
     45 H12        -7.9365   -0.1050    2.5924 H         1 <0>         0.0786
     46 H13        -6.8577    0.5478    0.4573 H         1 <0>         0.0807
     47 H14        -6.0074   -0.8230    1.2097 H         1 <0>         0.0694
     48 H15        -5.1862    2.1097    1.4138 H         1 <0>         0.0813
     49 H16        -4.4013    0.8806    0.3932 H         1 <0>         0.0849
     50 H17        -3.0228    2.4727    2.7269 H         1 <0>         0.1320
     51 H18        -2.2987    1.3436    1.5568 H         1 <0>         0.1388
     52 H19        -2.1556   -1.0770    2.9402 H         1 <0>         0.1264
     53 H20        -0.6897   -0.2715    2.3320 H         1 <0>         0.1378
     54 H21        -1.2013   -1.1039    5.2242 H         1 <0>         0.0746
     55 H22        -0.1160   -1.9284    4.0782 H         1 <0>         0.1198
     56 H23         1.2618    0.1101    3.8873 H         1 <0>         0.0892
     57 H24         1.1288   -0.3794    5.5946 H         1 <0>         0.1011
     58 H25        -1.2845    2.8372    4.1319 H         1 <0>         0.1269
     59 H26        -0.1875    1.9851    3.0190 H         1 <0>         0.1349
     60 H27         1.7955    2.3937    4.5507 H         1 <0>         0.0889
     61 H28         0.6708    3.3523    5.5428 H         1 <0>         0.0863
     62 H29         0.5554    3.0383    7.9444 H         1 <0>         0.1302
     63 H30         1.7372    2.3204    9.9814 H         1 <0>         0.1395
     64 H31         4.4339    0.0203    7.6019 H         1 <0>         0.1399
     65 H32         3.2442    0.7335    5.5679 H         1 <0>         0.1333
     66 H33        -1.7354    2.0413   13.1451 H         1 <0>         0.0904
     67 H34        -2.9307    1.4200   14.1940 H         1 <0>         0.0983
     68 H35        -2.4155    0.5280   12.7424 H         1 <0>         0.0792
     69 N4         -1.9210    0.9057    3.5983 N.4       1 <0>        -0.4126
     70 H36        -2.4820    0.7719    4.4478 H         1 <0>         0.4031
@<TRIPOS>BOND
     1    1    2 1
     2    1   37 1
     3    1   38 1
     4    1   39 1
     5    2    6 1
     6    2    3 2
     7    3    4 1
     8    3   34 1
     9    4    5 1
    10    5    6 2
    11    5    7 1
    12    7    8 am
    13    7   40 1
    14    8    9 2
    15    8   10 am
    16   10   11 1
    17   10   41 1
    18   11   12 1
    19   11   17 1
    20   11   13 1
    21   13   14 1
    22   13   42 1
    23   13   43 1
    24   14   15 1
    25   14   44 1
    26   14   45 1
    27   15   16 1
    28   15   46 1
    29   15   47 1
    30   16   17 1
    31   16   48 1
    32   16   49 1
    33   17   18 1
    34   17   19 1
    35   19   50 1
    36   19   51 1
    37   19   69 1
    38   20   21 1
    39   20   52 1
    40   20   53 1
    41   20   69 1
    42   21   22 1
    43   21   54 1
    44   21   55 1
    45   22   23 1
    46   22   56 1
    47   22   57 1
    48   23   24 1
    49   23   25 1
    50   23   26 1
    51   25   58 1
    52   25   59 1
    53   25   69 1
    54   26   27 1
    55   26   60 1
    56   26   61 1
    57   27   32 ar
    58   27   28 ar
    59   28   29 ar
    60   28   62 1
    61   29   30 ar
    62   29   63 1
    63   30   31 ar
    64   30   33 1
    65   31   32 ar
    66   31   64 1
    67   32   65 1
    68   34   35 2
    69   34   36 1
    70   36   66 1
    71   36   67 1
    72   36   68 1
    73   69   70 1
@<TRIPOS>MOLECULE
ZINC04423541
   37    38     0     0     0
SMALL
USER_CHARGES
methyl 4-(4-chlorophenyl)-1-methyl-piperidine-3-carboxylate
@<TRIPOS>ATOM
      1 C1          0.0589    1.2086    2.4247 C.3       1 <0>        -0.0424
      2 C2         -0.0127    1.0858    0.0080 C.3       1 <0>        -0.0056
      3 C3         -0.7525    1.5926   -1.2322 C.3       1 <0>        -0.1406
      4 C4         -2.1941    1.0772   -1.2067 C.3       1 <0>        -0.0407
      5 H1         -2.1922   -0.0122   -1.2441 H         1 <0>         0.1086
      6 C5         -2.8718    1.5436    0.0848 C.3       1 <0>        -0.0989
      7 H2         -2.9089    2.6328    0.1034 H         1 <0>         0.1323
      8 C6         -2.0706    1.0383    1.2868 C.3       1 <0>         0.0055
      9 C7         -4.2726    0.9913    0.1457 C.2       1 <0>         0.4620
     10 O1         -4.6873    0.2959   -0.7512 O.2       1 <0>        -0.4650
     11 O2         -5.0595    1.2718    1.1963 O.3       1 <0>        -0.3598
     12 C8         -6.3967    0.7060    1.1880 C.3       1 <0>         0.0353
     13 C9         -2.9447    1.6220   -2.3944 C.ar      1 <0>        -0.0942
     14 C10        -3.0867    2.9877   -2.5550 C.ar      1 <0>        -0.1090
     15 C11        -3.7702    3.4880   -3.6471 C.ar      1 <0>        -0.1092
     16 C12        -4.3221    2.6215   -4.5738 C.ar      1 <0>        -0.0251
     17 C13        -4.1845    1.2547   -4.4096 C.ar      1 <0>        -0.1069
     18 C14        -3.4960    0.7556   -3.3200 C.ar      1 <0>        -0.0675
     19 Cl1        -5.1873    3.2491   -5.9417 Cl        1 <0>        -0.0548
     20 H3          1.0693    1.6104    2.3487 H         1 <0>         0.1263
     21 H4         -0.4354    1.6313    3.2994 H         1 <0>         0.1248
     22 H5          0.1056    0.1240    2.5224 H         1 <0>         0.1250
     23 H6          0.0021   -0.0041    0.0020 H         1 <0>         0.1346
     24 H7          1.0099    1.4629    0.0003 H         1 <0>         0.1371
     25 H8         -0.7556    2.6826   -1.2339 H         1 <0>         0.0951
     26 H9         -0.2511    1.2286   -2.1290 H         1 <0>         0.1242
     27 H10        -2.5425    1.3807    2.2077 H         1 <0>         0.1455
     28 H11        -2.0460   -0.0514    1.2747 H         1 <0>         0.1387
     29 H12        -6.9378    1.0651    0.3126 H         1 <0>         0.0706
     30 H13        -6.3308   -0.3815    1.1535 H         1 <0>         0.0700
     31 H14        -6.9253    1.0095    2.0916 H         1 <0>         0.1112
     32 H15        -2.6596    3.6639   -1.8292 H         1 <0>         0.1263
     33 H16        -3.8772    4.5551   -3.7748 H         1 <0>         0.1375
     34 H17        -4.6155    0.5778   -5.1324 H         1 <0>         0.1386
     35 H18        -3.3888   -0.3113   -3.1915 H         1 <0>         0.1337
     36 N1         -0.7007    1.5892    1.2161 N.4       1 <0>        -0.3947
     37 H19        -0.7558    2.6132    1.1656 H         1 <0>         0.4313
@<TRIPOS>BOND
     1    1   20 1
     2    1   21 1
     3    1   22 1
     4    1   36 1
     5    2    3 1
     6    2   23 1
     7    2   24 1
     8    2   36 1
     9    3    4 1
    10    3   25 1
    11    3   26 1
    12    4    5 1
    13    4    6 1
    14    4   13 1
    15    6    7 1
    16    6    8 1
    17    6    9 1
    18    8   27 1
    19    8   28 1
    20    8   36 1
    21    9   10 2
    22    9   11 1
    23   11   12 1
    24   12   29 1
    25   12   30 1
    26   12   31 1
    27   13   18 ar
    28   13   14 ar
    29   14   15 ar
    30   14   32 1
    31   15   16 ar
    32   15   33 1
    33   16   17 ar
    34   16   19 1
    35   17   18 ar
    36   17   34 1
    37   18   35 1
    38   36   37 1
@<TRIPOS>MOLECULE
ZINC13475011
   37    38     0     0     0
SMALL
USER_CHARGES
methyl (3S,4S)-4-(4-chlorophenyl)-1-methyl-piperidine-3-carboxylate
@<TRIPOS>ATOM
      1 C1          1.0118   -1.7731   -2.3434 C.3       1 <0>        -0.0413
      2 C2          0.5424   -0.6673   -0.2417 C.3       1 <0>         0.0009
      3 C3          1.0894   -0.3996    1.1624 C.3       1 <0>        -0.1526
      4 C4          1.1843   -1.7220    1.9285 C.3       1 <0>        -0.0405
      5 H1          0.1885   -2.1511    2.0392 H         1 <0>         0.1226
      6 C5          2.0761   -2.6927    1.1495 C.3       1 <0>        -0.1078
      7 H2          2.1121   -3.6504    1.6688 H         1 <0>         0.1543
      8 C6          1.4991   -2.8937   -0.2537 C.3       1 <0>         0.0138
      9 C7          3.4679   -2.1242    1.0454 C.2       1 <0>         0.4796
     10 O1          3.7286   -1.3191    0.1830 O.2       1 <0>        -0.5251
     11 O2          4.4178   -2.5122    1.9107 O.3       1 <0>        -0.3246
     12 C8          5.7353   -1.9233    1.7509 C.3       1 <0>         0.0280
     13 C9          1.7798   -1.4734    3.2903 C.ar      1 <0>        -0.1050
     14 C10         2.8858   -0.6545    3.4218 C.ar      1 <0>        -0.1018
     15 C11         3.4322   -0.4258    4.6706 C.ar      1 <0>        -0.1017
     16 C12         2.8722   -1.0170    5.7892 C.ar      1 <0>        -0.0220
     17 C13         1.7654   -1.8364    5.6570 C.ar      1 <0>        -0.1028
     18 C14         1.2196   -2.0640    4.4077 C.ar      1 <0>        -0.0864
     19 Cl1         3.5583   -0.7306    7.3580 Cl        1 <0>        -0.0507
     20 H3          0.0262   -2.2375   -2.3725 H         1 <0>         0.1222
     21 H4          0.9695   -0.8000   -2.8329 H         1 <0>         0.1225
     22 H5          1.7289   -2.4096   -2.8618 H         1 <0>         0.1197
     23 H6          0.4881    0.2702   -0.7951 H         1 <0>         0.1324
     24 H7         -0.4541   -1.1022   -0.1652 H         1 <0>         0.1321
     25 H8          0.4209    0.2800    1.6910 H         1 <0>         0.1226
     26 H9          2.0799    0.0490    1.0867 H         1 <0>         0.0937
     27 H10         2.1396   -3.5733   -0.8158 H         1 <0>         0.1349
     28 H11         0.4980   -3.3181   -0.1773 H         1 <0>         0.1498
     29 H12         6.4061   -2.3217    2.5121 H         1 <0>         0.1161
     30 H13         6.1239   -2.1651    0.7617 H         1 <0>         0.0741
     31 H14         5.6651   -0.8410    1.8591 H         1 <0>         0.0726
     32 H15         3.3228   -0.1931    2.5486 H         1 <0>         0.1209
     33 H16         4.2987    0.2107    4.7727 H         1 <0>         0.1377
     34 H17         1.3276   -2.2979    6.5298 H         1 <0>         0.1419
     35 H18         0.3552   -2.7031    4.3044 H         1 <0>         0.1381
     36 N1          1.4583   -1.5886   -0.9472 N.4       1 <0>        -0.4033
     37 H19         2.4016   -1.1832   -0.9496 H         1 <0>         0.4353
@<TRIPOS>BOND
     1    1   20 1
     2    1   21 1
     3    1   22 1
     4    1   36 1
     5    2    3 1
     6    2   23 1
     7    2   24 1
     8    2   36 1
     9    3    4 1
    10    3   25 1
    11    3   26 1
    12    4    5 1
    13    4    6 1
    14    4   13 1
    15    6    7 1
    16    6    8 1
    17    6    9 1
    18    8   27 1
    19    8   28 1
    20    8   36 1
    21    9   10 2
    22    9   11 1
    23   11   12 1
    24   12   29 1
    25   12   30 1
    26   12   31 1
    27   13   18 ar
    28   13   14 ar
    29   14   15 ar
    30   14   32 1
    31   15   16 ar
    32   15   33 1
    33   16   17 ar
    34   16   19 1
    35   17   18 ar
    36   17   34 1
    37   18   35 1
    38   36   37 1
@<TRIPOS>MOLECULE
ZINC02530685
   38    40     0     0     0
SMALL
USER_CHARGES
methyl (1S,2S,3S,5R)-3-(4-fluorophenyl)-8-azabicyclo[3.2.1]octane-2-carboxylate
@<TRIPOS>ATOM
      1 C1          1.8405    3.9908    4.8111 C.3       1 <0>         0.0236
      2 O1          2.0937    4.7910    3.6262 O.3       1 <0>        -0.3649
      3 C2          2.2160    4.1341    2.4620 C.2       1 <0>         0.4734
      4 O2          2.1148    2.9304    2.4340 O.2       1 <0>        -0.4785
      5 C3          2.4794    4.8980    1.1900 C.3       1 <0>        -0.1022
      6 H1          3.5499    4.8106    0.9525 H         1 <0>         0.1457
      7 C4          2.0910    6.3724    1.3850 C.3       1 <0>         0.0448
      8 H2          2.5882    6.7975    2.2694 H         1 <0>         0.1646
      9 C5          0.5477    6.4531    1.4285 C.3       1 <0>        -0.2061
     10 C6          0.1192    6.6237   -0.0438 C.3       1 <0>        -0.2085
     11 C7          1.4425    6.6307   -0.8432 C.3       1 <0>         0.0504
     12 H3          1.4202    7.2626   -1.7433 H         1 <0>         0.1562
     13 N1          2.4597    7.0939    0.1379 N.4       1 <0>        -0.5439
     14 C8          1.7838    5.1751   -1.2002 C.3       1 <0>        -0.1425
     15 C9          1.6371    4.3095    0.0545 C.3       1 <0>        -0.0436
     16 H4          1.9693    3.2833   -0.1612 H         1 <0>         0.1315
     17 C10         0.1894    4.2725    0.4716 C.ar      1 <0>        -0.1119
     18 C11        -0.1415    4.1225    1.8054 C.ar      1 <0>        -0.1066
     19 C12        -1.4688    4.0885    2.1890 C.ar      1 <0>        -0.1664
     20 C13        -2.4673    4.1999    1.2363 C.ar      1 <0>         0.1276
     21 C14        -2.1346    4.3559   -0.0986 C.ar      1 <0>        -0.1695
     22 C15        -0.8067    4.3892   -0.4800 C.ar      1 <0>        -0.0729
     23 F1         -3.7651    4.1613    1.6096 F         1 <0>        -0.1258
     24 H5          1.7627    4.6495    5.6886 H         1 <0>         0.1179
     25 H6          2.6678    3.2809    4.9578 H         1 <0>         0.0772
     26 H7          0.8992    3.4359    4.6845 H         1 <0>         0.0727
     27 H8          0.1443    5.5277    1.8655 H         1 <0>         0.1609
     28 H9          0.2426    7.3124    2.0437 H         1 <0>         0.0995
     29 H10        -0.5291    5.7846   -0.3366 H         1 <0>         0.1684
     30 H11        -0.4309    7.5694   -0.1584 H         1 <0>         0.0970
     31 H12         2.4093    8.1786    0.3133 H         1 <0>         0.4565
     32 H13         1.0960    4.8181   -1.9809 H         1 <0>         0.1249
     33 H14         2.8182    5.1212   -1.5704 H         1 <0>         0.1038
     34 H15         0.6375    4.0314    2.5479 H         1 <0>         0.1529
     35 H16        -1.7270    3.9705    3.2310 H         1 <0>         0.1451
     36 H17        -2.9126    4.4471   -0.8422 H         1 <0>         0.1497
     37 H18        -0.5470    4.5060   -1.5217 H         1 <0>         0.1491
     38 H19         3.4827    6.8173   -0.1569 H         1 <0>         0.4497
@<TRIPOS>BOND
     1    1    2 1
     2    1   24 1
     3    1   25 1
     4    1   26 1
     5    2    3 1
     6    3    4 2
     7    3    5 1
     8    5    6 1
     9    5   15 1
    10    5    7 1
    11    7    8 1
    12    7   13 1
    13    7    9 1
    14    9   10 1
    15    9   27 1
    16    9   28 1
    17   10   11 1
    18   10   29 1
    19   10   30 1
    20   11   12 1
    21   11   13 1
    22   11   14 1
    23   13   31 1
    24   13   38 1
    25   14   15 1
    26   14   32 1
    27   14   33 1
    28   15   16 1
    29   15   17 1
    30   17   22 ar
    31   17   18 ar
    32   18   19 ar
    33   18   34 1
    34   19   20 ar
    35   19   35 1
    36   20   21 ar
    37   20   23 1
    38   21   22 ar
    39   21   36 1
    40   22   37 1
@<TRIPOS>MOLECULE
ZINC28019359
   38    40     0     0     0
SMALL
USER_CHARGES
methyl (1S,2R,3S,5R)-3-(4-fluorophenyl)-8-azabicyclo[3.2.1]octane-2-carboxylate
@<TRIPOS>ATOM
      1 C1          0.0478   -0.0270   -0.2278 C.3       1 <0>         0.0255
      2 O1          0.0155    1.4246   -0.2273 O.3       1 <0>        -0.3542
      3 C2          1.1936    2.0604   -0.1292 C.2       1 <0>         0.4358
      4 O2          2.2179    1.4249   -0.0465 O.2       1 <0>        -0.4737
      5 C3          1.2387    3.5667   -0.1222 C.3       1 <0>        -0.1028
      6 H1          0.8105    3.9274   -1.0691 H         1 <0>         0.1572
      7 C4          0.4301    4.1004    1.0712 C.3       1 <0>         0.0490
      8 H2         -0.6417    3.8854    0.9490 H         1 <0>         0.1636
      9 C5          0.7586    5.6027    1.2310 C.3       1 <0>        -0.2029
     10 C6          1.9909    5.6412    2.1586 C.3       1 <0>        -0.2056
     11 C7          2.2950    4.1587    2.4749 C.3       1 <0>         0.0486
     12 H3          2.7118    3.9864    3.4782 H         1 <0>         0.1534
     13 N1          0.9879    3.4718    2.2981 N.4       1 <0>        -0.5483
     14 C8          3.2517    3.6337    1.3924 C.3       1 <0>        -0.1500
     15 C9          2.6901    4.0358    0.0131 C.3       1 <0>        -0.0366
     16 H4          3.2926    3.5811   -0.7871 H         1 <0>         0.1268
     17 C10         2.7473    5.5353   -0.1252 C.ar      1 <0>        -0.1096
     18 C11         1.8187    6.1924   -0.9107 C.ar      1 <0>        -0.0820
     19 C12         1.8666    7.5681   -1.0337 C.ar      1 <0>        -0.1675
     20 C13         2.8518    8.2872   -0.3785 C.ar      1 <0>         0.1266
     21 C14         3.7847    7.6275    0.4035 C.ar      1 <0>        -0.1686
     22 C15         3.7316    6.2523    0.5292 C.ar      1 <0>        -0.0737
     23 F1          2.9030    9.6315   -0.5024 F         1 <0>        -0.1263
     24 H5         -0.9774   -0.4165   -0.3128 H         1 <0>         0.1172
     25 H6          0.4991   -0.3840    0.7097 H         1 <0>         0.0711
     26 H7          0.6461   -0.3801   -1.0806 H         1 <0>         0.0765
     27 H8          0.9776    6.0371    0.2444 H         1 <0>         0.1672
     28 H9         -0.1031    6.1211    1.6767 H         1 <0>         0.1003
     29 H10         2.8284    6.1262    1.6357 H         1 <0>         0.1693
     30 H11         1.7476    6.2101    3.0681 H         1 <0>         0.0969
     31 H12         0.3050    3.6466    3.1425 H         1 <0>         0.4566
     32 H13         4.2481    4.0765    1.5376 H         1 <0>         0.1227
     33 H14         3.3230    2.5385    1.4659 H         1 <0>         0.1093
     34 H15         1.0530    5.6308   -1.4253 H         1 <0>         0.1441
     35 H16         1.1382    8.0816   -1.6437 H         1 <0>         0.1482
     36 H17         4.5534    8.1874    0.9154 H         1 <0>         0.1484
     37 H18         4.4592    5.7375    1.1391 H         1 <0>         0.1480
     38 H19         1.1016    2.3897    2.1365 H         1 <0>         0.4396
@<TRIPOS>BOND
     1    1    2 1
     2    1   24 1
     3    1   25 1
     4    1   26 1
     5    2    3 1
     6    3    4 2
     7    3    5 1
     8    5    6 1
     9    5   15 1
    10    5    7 1
    11    7    8 1
    12    7   13 1
    13    7    9 1
    14    9   10 1
    15    9   27 1
    16    9   28 1
    17   10   11 1
    18   10   29 1
    19   10   30 1
    20   11   12 1
    21   11   13 1
    22   11   14 1
    23   13   31 1
    24   13   38 1
    25   14   15 1
    26   14   32 1
    27   14   33 1
    28   15   16 1
    29   15   17 1
    30   17   22 ar
    31   17   18 ar
    32   18   19 ar
    33   18   34 1
    34   19   20 ar
    35   19   35 1
    36   20   21 ar
    37   20   23 1
    38   21   22 ar
    39   21   36 1
    40   22   37 1
@<TRIPOS>MOLECULE
ZINC13404422
   41    43     0     0     0
SMALL
USER_CHARGES
methyl (1S,2S,3S,5R)-3-benzoyloxy-8-azabicyclo[3.2.1]octane-2-carboxylate
@<TRIPOS>ATOM
      1 C1          5.8856   -0.8889    1.5456 C.3       1 <0>         0.0292
      2 O1          4.6588   -0.1151    1.4771 O.3       1 <0>        -0.3335
      3 C2          4.7100    1.0509    0.8141 C.2       1 <0>         0.4741
      4 O2          5.7456    1.4129    0.3076 O.2       1 <0>        -0.5106
      5 C3          3.4759    1.9083    0.7012 C.3       1 <0>        -0.1067
      6 H1          3.1351    2.1934    1.6966 H         1 <0>         0.1675
      7 C4          3.7990    3.1710   -0.1136 C.3       1 <0>         0.0525
      8 H2          4.4734    3.8418    0.4188 H         1 <0>         0.1692
      9 C5          2.4608    3.8548   -0.4768 C.3       1 <0>        -0.1425
     10 C6          2.0351    3.2067   -1.8107 C.3       1 <0>        -0.1468
     11 C7          3.1548    2.1903   -2.1322 C.3       1 <0>         0.0287
     12 H3          3.3245    2.0893   -3.2042 H         1 <0>         0.1642
     13 C8          2.7848    0.8563   -1.4642 C.3       1 <0>        -0.1651
     14 C9          2.3712    1.1257   -0.0145 C.3       1 <0>         0.0876
     15 H4          2.2087    0.1773    0.4976 H         1 <0>         0.1300
     16 O3          1.1429    1.8999    0.0013 O.3       1 <0>        -0.3355
     17 C10        -0.0144    1.2105    0.0087 C.2       1 <0>         0.5050
     18 O4          0.0021   -0.0041    0.0020 O.2       1 <0>        -0.4851
     19 C11        -1.3036    1.9317    0.0187 C.ar      1 <0>        -0.1393
     20 C12        -1.3262    3.3277    0.0322 C.ar      1 <0>        -0.0680
     21 C13        -2.5336    3.9948    0.0357 C.ar      1 <0>        -0.1306
     22 C14        -3.7205    3.2836    0.0374 C.ar      1 <0>        -0.0720
     23 C15        -3.7054    1.9000    0.0299 C.ar      1 <0>        -0.1253
     24 C16        -2.5051    1.2203    0.0206 C.ar      1 <0>        -0.0495
     25 H5          5.7062   -1.8053    2.1078 H         1 <0>         0.1191
     26 H6          6.2137   -1.1398    0.5369 H         1 <0>         0.0744
     27 H7          6.6577   -0.3024    2.0435 H         1 <0>         0.0775
     28 H8          1.7146    3.6616    0.2939 H         1 <0>         0.1319
     29 H9          2.6052    4.9277   -0.6035 H         1 <0>         0.1064
     30 H10         1.0797    2.6949   -1.6959 H         1 <0>         0.1225
     31 H11         1.9687    3.9611   -2.5947 H         1 <0>         0.0996
     32 H12         3.6464    0.1887   -1.4800 H         1 <0>         0.1025
     33 H13         1.9550    0.3969   -2.0012 H         1 <0>         0.1281
     34 H14        -0.4005    3.8840    0.0354 H         1 <0>         0.1337
     35 H15        -2.5525    5.0746    0.0412 H         1 <0>         0.1359
     36 H16        -4.6631    3.8108    0.0451 H         1 <0>         0.1360
     37 H17        -4.6355    1.3511    0.0310 H         1 <0>         0.1392
     38 H18        -2.4947    0.1404    0.0143 H         1 <0>         0.1402
     39 N1          4.3079    2.7214   -1.4079 N.4       1 <0>        -0.5124
     40 H19         5.0157    1.9890   -1.2779 H         1 <0>         0.4315
     41 H20         4.7204    3.5086   -1.9220 H         1 <0>         0.4364
@<TRIPOS>BOND
     1    1    2 1
     2    1   25 1
     3    1   26 1
     4    1   27 1
     5    2    3 1
     6    3    4 2
     7    3    5 1
     8    5    6 1
     9    5   14 1
    10    5    7 1
    11    7    8 1
    12    7    9 1
    13    7   39 1
    14    9   10 1
    15    9   28 1
    16    9   29 1
    17   10   11 1
    18   10   30 1
    19   10   31 1
    20   11   12 1
    21   11   13 1
    22   11   39 1
    23   13   14 1
    24   13   32 1
    25   13   33 1
    26   14   15 1
    27   14   16 1
    28   16   17 1
    29   17   18 2
    30   17   19 1
    31   19   24 ar
    32   19   20 ar
    33   20   21 ar
    34   20   34 1
    35   21   22 ar
    36   21   35 1
    37   22   23 ar
    38   22   36 1
    39   23   24 ar
    40   23   37 1
    41   24   38 1
    42   39   40 1
    43   39   41 1
@<TRIPOS>MOLECULE
ZINC03785745
   41    43     0     0     0
SMALL
USER_CHARGES
methyl 3-(4-iodophenyl)-8-methyl-8-azabicyclo[3.2.1]octane-4-carboxylate
@<TRIPOS>ATOM
      1 C1         -2.9597    2.4968    2.4575 C.3       1 <0>        -0.0346
      2 C2         -1.6906    1.5256    0.6186 C.3       1 <0>         0.0319
      3 H1         -2.2848    0.6249    0.7724 H         1 <0>         0.1561
      4 C3         -2.2882    2.4407   -0.4749 C.3       1 <0>        -0.1429
      5 C4         -1.9273    3.8817   -0.0023 C.3       1 <0>        -0.1417
      6 C5         -1.1524    3.6863    1.3212 C.3       1 <0>         0.0459
      7 H2         -1.3218    4.5034    2.0225 H         1 <0>         0.1614
      8 C6          0.3358    3.5202    0.9745 C.3       1 <0>        -0.1060
      9 H3          0.7460    4.4789    0.6572 H         1 <0>         0.1525
     10 C7          0.4693    2.5034   -0.1628 C.3       1 <0>        -0.0430
     11 H4          0.0177    2.9101   -1.0676 H         1 <0>         0.1258
     12 C8         -0.2415    1.2024    0.2208 C.3       1 <0>        -0.1485
     13 C9          1.9282    2.2220   -0.4149 C.ar      1 <0>        -0.0904
     14 C10         2.5534    2.7577   -1.5254 C.ar      1 <0>        -0.0955
     15 C11         3.8929    2.5044   -1.7539 C.ar      1 <0>        -0.0757
     16 C12         4.6047    1.7055   -0.8778 C.ar      1 <0>        -0.0893
     17 C13         3.9775    1.1651    0.2300 C.ar      1 <0>        -0.0752
     18 C14         2.6396    1.4238    0.4613 C.ar      1 <0>        -0.1213
     19 I1          6.6324    1.3132   -1.2291 I         1 <0>        -0.0211
     20 C15         1.0838    3.0243    2.1852 C.2       1 <0>         0.4831
     21 O1          0.6463    2.1002    2.8290 O.2       1 <0>        -0.5190
     22 O2          2.2360    3.6093    2.5484 O.3       1 <0>        -0.3225
     23 C16         2.9021    3.0796    3.7248 C.3       1 <0>         0.0268
     24 H5         -3.3207    1.5071    2.7372 H         1 <0>         0.1226
     25 H6         -2.8892    3.1226    3.3471 H         1 <0>         0.1201
     26 H7         -3.6532    2.9495    1.7489 H         1 <0>         0.1160
     27 H8         -1.8262    2.2306   -1.4395 H         1 <0>         0.1128
     28 H9         -3.3683    2.3063   -0.5334 H         1 <0>         0.1031
     29 H10        -2.8342    4.4611    0.1711 H         1 <0>         0.1073
     30 H11        -1.2966    4.3750   -0.7419 H         1 <0>         0.1148
     31 H12         0.2736    0.7395    1.0626 H         1 <0>         0.0984
     32 H13        -0.2398    0.5192   -0.6285 H         1 <0>         0.1205
     33 H14         1.9963    3.3777   -2.2122 H         1 <0>         0.1372
     34 H15         4.3825    2.9268   -2.6189 H         1 <0>         0.1380
     35 H16         4.5330    0.5409    0.9142 H         1 <0>         0.1336
     36 H17         2.1497    1.0018    1.3264 H         1 <0>         0.1254
     37 H18         3.8187    3.6407    3.9070 H         1 <0>         0.1175
     38 H19         2.2426    3.1709    4.5878 H         1 <0>         0.0749
     39 H20         3.1452    2.0295    3.5627 H         1 <0>         0.0744
     40 N1         -1.6163    2.3783    1.7986 N.4       1 <0>        -0.4026
     41 H21        -0.9449    1.9906    2.4718 H         1 <0>         0.4289
@<TRIPOS>BOND
     1    1   24 1
     2    1   25 1
     3    1   26 1
     4    1   40 1
     5    2    3 1
     6    2   12 1
     7    2    4 1
     8    2   40 1
     9    4    5 1
    10    4   27 1
    11    4   28 1
    12    5    6 1
    13    5   29 1
    14    5   30 1
    15    6    7 1
    16    6    8 1
    17    6   40 1
    18    8    9 1
    19    8   10 1
    20    8   20 1
    21   10   11 1
    22   10   12 1
    23   10   13 1
    24   12   31 1
    25   12   32 1
    26   13   18 ar
    27   13   14 ar
    28   14   15 ar
    29   14   33 1
    30   15   16 ar
    31   15   34 1
    32   16   17 ar
    33   16   19 1
    34   17   18 ar
    35   17   35 1
    36   18   36 1
    37   20   21 2
    38   20   22 1
    39   22   23 1
    40   23   37 1
    41   23   38 1
    42   23   39 1
    43   40   41 1
@<TRIPOS>MOLECULE
ZINC12957760
   40    41     0     0     0
SMALL
USER_CHARGES

@<TRIPOS>ATOM
      1 C1          1.0846    1.4163   -0.0544 C.3       1 <0>        -0.1291
      2 C2          0.8327   -0.0695   -0.0515 C.ar      1 <0>         0.0088
      3 C3         -0.4161   -0.5562    0.2890 C.ar      1 <0>        -0.1831
      4 C4         -0.6539   -1.9179    0.2942 C.ar      1 <0>        -0.0136
      5 C5          0.3618   -2.8007   -0.0433 C.ar      1 <0>        -0.2358
      6 C6          1.6215   -2.3094   -0.3873 C.ar      1 <0>         0.2752
      7 C7          1.8493   -0.9417   -0.3948 C.ar      1 <0>        -0.2063
      8 N1          2.6507   -3.1943   -0.7289 N.pl3     1 <0>        -0.8648
      9 S1          0.0619   -4.5370   -0.0371 S.3       1 <0>        -0.0226
     10 C8         -0.0905   -4.9494   -1.7434 C.ar      1 <0>        -0.0901
     11 C9         -0.0824   -3.9466   -2.7059 C.ar      1 <0>        -0.1113
     12 C10        -0.2015   -4.2735   -4.0419 C.ar      1 <0>        -0.0694
     13 C11        -0.3289   -5.5971   -4.4231 C.ar      1 <0>        -0.1168
     14 C12        -0.3379   -6.5974   -3.4683 C.ar      1 <0>        -0.0764
     15 C13        -0.2134   -6.2783   -2.1304 C.ar      1 <0>        -0.1452
     16 C14        -0.2170   -7.3696   -1.0911 C.3       1 <0>         0.0408
     17 N2         -1.5510   -7.4620   -0.4828 N.4       1 <0>        -0.3877
     18 C15        -2.5235   -7.8888   -1.4977 C.3       1 <0>        -0.0508
     19 C16        -1.5233   -8.4418    0.6114 C.3       1 <0>        -0.0487
     20 H1          0.8537    1.8220   -1.0394 H         1 <0>         0.0819
     21 H2          0.4508    1.8937    0.6929 H         1 <0>         0.0763
     22 H3          2.1315    1.6077    0.1812 H         1 <0>         0.0740
     23 H4         -1.2078    0.1296    0.5521 H         1 <0>         0.1317
     24 H5         -1.6302   -2.2946    0.5614 H         1 <0>         0.1315
     25 H6          2.8221   -0.5577   -0.6644 H         1 <0>         0.1319
     26 H7          2.4888   -4.1507   -0.7268 H         1 <0>         0.4009
     27 H8          3.5260   -2.8511   -0.9679 H         1 <0>         0.4057
     28 H9          0.0167   -2.9129   -2.4090 H         1 <0>         0.1346
     29 H10        -0.1956   -3.4948   -4.7903 H         1 <0>         0.1363
     30 H11        -0.4220   -5.8499   -5.4690 H         1 <0>         0.1380
     31 H12        -0.4383   -7.6296   -3.7695 H         1 <0>         0.1365
     32 H13         0.0345   -8.3201   -1.5615 H         1 <0>         0.1403
     33 H14         0.5186   -7.1397   -0.3203 H         1 <0>         0.1376
     34 H15        -3.5132   -7.9574   -1.0464 H         1 <0>         0.1246
     35 H16        -2.5440   -7.1618   -2.3096 H         1 <0>         0.1218
     36 H17        -2.2348   -8.8638   -1.8903 H         1 <0>         0.1234
     37 H18        -0.8017   -8.1251    1.3645 H         1 <0>         0.1243
     38 H19        -2.5131   -8.5104    1.0628 H         1 <0>         0.1261
     39 H20        -1.2346   -9.4168    0.2189 H         1 <0>         0.1239
     40 H21        -1.8182   -6.5595   -0.1194 H         1 <0>         0.4256
@<TRIPOS>BOND
     1    1    2 1
     2    1   20 1
     3    1   21 1
     4    1   22 1
     5    2    7 ar
     6    2    3 ar
     7    3    4 ar
     8    3   23 1
     9    4    5 ar
    10    4   24 1
    11    5    6 ar
    12    5    9 1
    13    6    7 ar
    14    6    8 1
    15    7   25 1
    16    8   26 1
    17    8   27 1
    18    9   10 1
    19   10   15 ar
    20   10   11 ar
    21   11   12 ar
    22   11   28 1
    23   12   13 ar
    24   12   29 1
    25   13   14 ar
    26   13   30 1
    27   14   15 ar
    28   14   31 1
    29   15   16 1
    30   16   17 1
    31   16   32 1
    32   16   33 1
    33   17   18 1
    34   17   19 1
    35   17   40 1
    36   18   34 1
    37   18   35 1
    38   18   36 1
    39   19   37 1
    40   19   38 1
    41   19   39 1
@<TRIPOS>MOLECULE
ZINC36270657
   46    48     0     0     0
SMALL
USER_CHARGES

@<TRIPOS>ATOM
      1 C1         -0.4701    1.5709    0.3656 C.3       1 <0>        -0.1523
      2 C2         -0.4231    0.0615    0.6116 C.3       1 <0>        -0.1849
      3 C3         -1.5753   -0.5996   -0.1000 C.2       1 <0>         0.3827
      4 O1         -2.3538    0.0677   -0.7380 O.2       1 <0>        -0.4415
      5 C4         -1.7561   -2.0933   -0.0154 C.3       1 <0>        -0.1594
      6 H1         -0.9973   -2.5878   -0.6219 H         1 <0>         0.1329
      7 C5         -3.1540   -2.4726   -0.5298 C.3       1 <0>         0.0476
      8 H2         -3.3543   -2.0582   -1.5178 H         1 <0>         0.1542
      9 C6         -4.1874   -2.0050    0.5208 C.3       1 <0>        -0.1984
     10 C7         -4.3195   -3.1901    1.4999 C.3       1 <0>        -0.2071
     11 C8         -3.3541   -4.2662    0.9518 C.3       1 <0>         0.0394
     12 H3         -3.7189   -5.2774    1.1320 H         1 <0>         0.1497
     13 N1         -3.2417   -3.9571   -0.5138 N.4       1 <0>        -0.3970
     14 C9         -4.4400   -4.4123   -1.2313 C.3       1 <0>        -0.0407
     15 C10        -1.9745   -4.0269    1.5859 C.3       1 <0>        -0.1379
     16 C11        -1.6220   -2.5444    1.4419 C.3       1 <0>        -0.0460
     17 H4         -0.6001   -2.3752    1.7812 H         1 <0>         0.1241
     18 C12        -2.5723   -1.7513    2.3016 C.ar      1 <0>        -0.1128
     19 C13        -3.0997   -2.3137    3.4489 C.ar      1 <0>        -0.1012
     20 C14        -3.9714   -1.5863    4.2375 C.ar      1 <0>        -0.1328
     21 C15        -4.3153   -0.2963    3.8790 C.ar      1 <0>        -0.0569
     22 C16        -3.7872    0.2664    2.7322 C.ar      1 <0>        -0.1260
     23 C17        -2.9121   -0.4595    1.9459 C.ar      1 <0>        -0.1494
     24 C18        -5.2664    0.4964    4.7382 C.3       1 <0>        -0.1275
     25 H5          0.3633    2.0490    0.8803 H         1 <0>         0.0734
     26 H6         -0.3973    1.7671   -0.7041 H         1 <0>         0.0663
     27 H7         -1.4099    1.9718    0.7454 H         1 <0>         0.0634
     28 H8          0.5167   -0.3394    0.2318 H         1 <0>         0.1084
     29 H9         -0.4959   -0.1347    1.6813 H         1 <0>         0.1097
     30 H10        -3.8235   -1.1202    1.0432 H         1 <0>         0.1687
     31 H11        -5.1456   -1.7980    0.0444 H         1 <0>         0.0908
     32 H12        -4.0204   -2.8881    2.5036 H         1 <0>         0.1735
     33 H13        -5.3427   -3.5657    1.5050 H         1 <0>         0.0891
     34 H14        -4.3949   -4.0725   -2.2660 H         1 <0>         0.1212
     35 H15        -4.4857   -5.5011   -1.2081 H         1 <0>         0.1229
     36 H16        -5.3285   -4.0010   -0.7522 H         1 <0>         0.1202
     37 H17        -2.0003   -4.3163    2.6365 H         1 <0>         0.1247
     38 H18        -1.2239   -4.6179    1.0610 H         1 <0>         0.0968
     39 H19        -2.8311   -3.3216    3.7290 H         1 <0>         0.1376
     40 H20        -4.3841   -2.0259    5.1335 H         1 <0>         0.1342
     41 H21        -4.0561    1.2742    2.4519 H         1 <0>         0.1320
     42 H22        -2.4966   -0.0185    1.0518 H         1 <0>         0.1598
     43 H23        -4.7025    1.0500    5.4889 H         1 <0>         0.0805
     44 H24        -5.8237    1.1950    4.1141 H         1 <0>         0.0726
     45 H25        -5.9609   -0.1825    5.2330 H         1 <0>         0.0730
     46 H26        -2.4100   -4.3665   -0.9122 H         1 <0>         0.4225
@<TRIPOS>BOND
     1    1    2 1
     2    1   25 1
     3    1   26 1
     4    1   27 1
     5    2    3 1
     6    2   28 1
     7    2   29 1
     8    3    4 2
     9    3    5 1
    10    5    6 1
    11    5   16 1
    12    5    7 1
    13    7    8 1
    14    7   13 1
    15    7    9 1
    16    9   10 1
    17    9   30 1
    18    9   31 1
    19   10   11 1
    20   10   32 1
    21   10   33 1
    22   11   12 1
    23   11   13 1
    24   11   15 1
    25   13   14 1
    26   13   46 1
    27   14   34 1
    28   14   35 1
    29   14   36 1
    30   15   16 1
    31   15   37 1
    32   15   38 1
    33   16   17 1
    34   16   18 1
    35   18   23 ar
    36   18   19 ar
    37   19   20 ar
    38   19   39 1
    39   20   21 ar
    40   20   40 1
    41   21   22 ar
    42   21   24 1
    43   22   23 ar
    44   22   41 1
    45   23   42 1
    46   24   43 1
    47   24   44 1
    48   24   45 1
@<TRIPOS>MOLECULE
ZINC36270659
   46    48     0     0     0
SMALL
USER_CHARGES

@<TRIPOS>ATOM
      1 C1         -0.8440    1.6436    1.0284 C.3       1 <0>        -0.1523
      2 C2         -1.0141    0.1434    1.2765 C.3       1 <0>        -0.1773
      3 C3         -1.5348   -0.5167    0.0258 C.2       1 <0>         0.3431
      4 O1         -1.7478    0.1444   -0.9620 O.2       1 <0>        -0.4261
      5 C4         -1.7895   -2.0019    0.0079 C.3       1 <0>        -0.1593
      6 H1         -1.0158   -2.5120    0.5817 H         1 <0>         0.1472
      7 C5         -3.1662   -2.2955    0.6253 C.3       1 <0>         0.0493
      8 H2         -3.1915   -2.0804    1.6935 H         1 <0>         0.1528
      9 C6         -3.5179   -3.7692    0.3173 C.3       1 <0>        -0.1998
     10 C7         -4.2342   -3.7274   -1.0486 C.3       1 <0>        -0.2064
     11 C8         -4.2504   -2.2322   -1.4417 C.3       1 <0>         0.0419
     12 H3         -5.1429   -1.9644   -2.0073 H         1 <0>         0.1474
     13 N1         -4.1680   -1.4998   -0.1330 N.4       1 <0>        -0.4037
     14 C9         -5.4677   -1.5170    0.5516 C.3       1 <0>        -0.0424
     15 C10        -2.9599   -1.9375   -2.2229 C.3       1 <0>        -0.1515
     16 C11        -1.7735   -2.5076   -1.4375 C.3       1 <0>        -0.0384
     17 H4         -0.8394   -2.2114   -1.9149 H         1 <0>         0.1159
     18 C12        -1.8838   -4.0105   -1.4439 C.ar      1 <0>        -0.1026
     19 C13        -2.4854   -4.6548   -2.5088 C.ar      1 <0>        -0.1034
     20 C14        -2.5866   -6.0334   -2.5148 C.ar      1 <0>        -0.1319
     21 C15        -2.0859   -6.7678   -1.4560 C.ar      1 <0>        -0.0594
     22 C16        -1.4835   -6.1236   -0.3916 C.ar      1 <0>        -0.1318
     23 C17        -1.3785   -4.7453   -0.3877 C.ar      1 <0>        -0.1087
     24 C18        -2.1972   -8.2707   -1.4621 C.3       1 <0>        -0.1269
     25 H5         -0.4674    2.1210    1.9330 H         1 <0>         0.0727
     26 H6         -0.1366    1.7992    0.2139 H         1 <0>         0.0669
     27 H7         -1.8069    2.0792    0.7616 H         1 <0>         0.0604
     28 H8         -0.0512   -0.2922    1.5433 H         1 <0>         0.1129
     29 H9         -1.7215   -0.0122    2.0910 H         1 <0>         0.1024
     30 H10        -2.6108   -4.3700    0.2516 H         1 <0>         0.1738
     31 H11        -4.1836   -4.1683    1.0826 H         1 <0>         0.0933
     32 H12        -3.6792   -4.3074   -1.7859 H         1 <0>         0.1742
     33 H13        -5.2521   -4.1060   -0.9550 H         1 <0>         0.0893
     34 H14        -5.3589   -1.0899    1.5485 H         1 <0>         0.1207
     35 H15        -6.1867   -0.9293   -0.0191 H         1 <0>         0.1227
     36 H16        -5.8217   -2.5447    0.6333 H         1 <0>         0.1229
     37 H17        -3.0200   -2.3917   -3.2120 H         1 <0>         0.1185
     38 H18        -2.8309   -0.8596   -2.3215 H         1 <0>         0.1140
     39 H19        -2.8766   -4.0811   -3.3360 H         1 <0>         0.1365
     40 H20        -3.0572   -6.5368   -3.3464 H         1 <0>         0.1333
     41 H21        -1.0926   -6.6973    0.4357 H         1 <0>         0.1331
     42 H22        -0.9045   -4.2422    0.4422 H         1 <0>         0.1333
     43 H23        -1.3151   -8.6984   -1.9387 H         1 <0>         0.0797
     44 H24        -2.2682   -8.6339   -0.4368 H         1 <0>         0.0723
     45 H25        -3.0886   -8.5668   -2.0150 H         1 <0>         0.0723
     46 H26        -3.8452   -0.5526   -0.2623 H         1 <0>         0.4190
@<TRIPOS>BOND
     1    1    2 1
     2    1   25 1
     3    1   26 1
     4    1   27 1
     5    2    3 1
     6    2   28 1
     7    2   29 1
     8    3    4 2
     9    3    5 1
    10    5    6 1
    11    5   16 1
    12    5    7 1
    13    7    8 1
    14    7   13 1
    15    7    9 1
    16    9   10 1
    17    9   30 1
    18    9   31 1
    19   10   11 1
    20   10   32 1
    21   10   33 1
    22   11   12 1
    23   11   13 1
    24   11   15 1
    25   13   14 1
    26   13   46 1
    27   14   34 1
    28   14   35 1
    29   14   36 1
    30   15   16 1
    31   15   37 1
    32   15   38 1
    33   16   17 1
    34   16   18 1
    35   18   23 ar
    36   18   19 ar
    37   19   20 ar
    38   19   39 1
    39   20   21 ar
    40   20   40 1
    41   21   22 ar
    42   21   24 1
    43   22   23 ar
    44   22   41 1
    45   23   42 1
    46   24   43 1
    47   24   44 1
    48   24   45 1
@<TRIPOS>MOLECULE
ZINC22463226
   60    64     0     0     0
SMALL
USER_CHARGES
1-[2-[4-[(1R,3S)-3-(4-fluorophenyl)indan-1-yl]piperazin-1-yl]ethyl]imidazolidin-2-one
@<TRIPOS>ATOM
      1 C1         -1.4356    7.5535    5.2729 C.ar      1 <0>        -0.0792
      2 C2         -0.3028    6.8760    5.6842 C.ar      1 <0>        -0.1119
      3 C3         -0.2621    5.4972    5.6174 C.ar      1 <0>        -0.0790
      4 C4         -1.3531    4.7900    5.1400 C.ar      1 <0>        -0.1629
      5 C5         -2.4856    5.4674    4.7289 C.ar      1 <0>        -0.0588
      6 C6         -2.5243    6.8502    4.7962 C.ar      1 <0>        -0.0955
      7 C7         -3.5288    4.4789    4.2537 C.3       1 <0>        -0.0221
      8 H1         -3.6195    4.4787    3.1574 H         1 <0>         0.1085
      9 C8         -3.0833    3.1158    4.8245 C.3       1 <0>        -0.1291
     10 C9         -1.5577    3.3000    4.9693 C.3       1 <0>         0.0953
     11 H2         -1.1163    2.7203    5.7934 H         1 <0>         0.1413
     12 N1         -0.8702    2.8262    3.7606 N.4       1 <0>        -0.4000
     13 C10        -0.8762    1.3583    3.6925 C.3       1 <0>        -0.0008
     14 C11        -0.0838    0.9040    2.4644 C.3       1 <0>         0.0275
     15 N2         -0.6822    1.4869    1.2554 N.3       1 <0>        -0.5345
     16 C12        -0.6761    2.9549    1.3235 C.3       1 <0>         0.0208
     17 C13        -1.4685    3.4092    2.5516 C.3       1 <0>        -0.0079
     18 C14         0.0054    1.0132    0.0468 C.3       1 <0>         0.0354
     19 C15        -0.7895    1.4349   -1.1906 C.3       1 <0>         0.1538
     20 N3         -0.1038    0.9625   -2.3959 N.am      1 <0>        -0.6383
     21 C16        -0.3248   -0.3369   -3.0480 C.3       1 <0>         0.0874
     22 C17         0.6388   -0.3153   -4.2504 C.3       1 <0>         0.0814
     23 N4          1.3005    0.9940   -4.1481 N.am      1 <0>        -0.7473
     24 C18         0.8200    1.6478   -3.0824 C.2       1 <0>         0.7077
     25 O1          1.1916    2.7611   -2.7646 O.2       1 <0>        -0.5902
     26 C19        -4.8867    4.8538    4.7892 C.ar      1 <0>        -0.1087
     27 C20        -5.0919    4.9378    6.1537 C.ar      1 <0>        -0.0792
     28 C21        -6.3354    5.2862    6.6458 C.ar      1 <0>        -0.1498
     29 C22        -7.3787    5.5409    5.7719 C.ar      1 <0>         0.1117
     30 C23        -7.1733    5.4513    4.4055 C.ar      1 <0>        -0.1491
     31 C24        -5.9276    5.1079    3.9156 C.ar      1 <0>        -0.0803
     32 F1         -8.5960    5.8769    6.2520 F         1 <0>        -0.1321
     33 H3         -1.4689    8.6318    5.3241 H         1 <0>         0.1380
     34 H4          0.5494    7.4244    6.0576 H         1 <0>         0.1382
     35 H5          0.6231    4.9686    5.9389 H         1 <0>         0.1298
     36 H6         -3.4090    7.3801    4.4754 H         1 <0>         0.1320
     37 H7         -3.5861    2.9393    5.7868 H         1 <0>         0.1219
     38 H8         -3.3526    2.3168    4.1181 H         1 <0>         0.1047
     39 H9         -0.4130    0.9472    4.6016 H         1 <0>         0.1372
     40 H10        -1.9130    0.9991    3.6146 H         1 <0>         0.1366
     41 H11         0.9597    1.2396    2.5566 H         1 <0>         0.0615
     42 H12        -0.1112   -0.1935    2.3957 H         1 <0>         0.1241
     43 H13         0.3607    3.3140    1.4014 H         1 <0>         0.0633
     44 H14        -1.1392    3.3661    0.4144 H         1 <0>         0.1247
     45 H15        -2.5121    3.0736    2.4606 H         1 <0>         0.1375
     46 H16        -1.4411    4.5066    2.6215 H         1 <0>         0.1349
     47 H17         1.0131    1.4521    0.0024 H         1 <0>         0.0530
     48 H18         0.0842   -0.0836    0.0758 H         1 <0>         0.0902
     49 H19        -1.7972    0.9960   -1.1462 H         1 <0>         0.0928
     50 H20        -0.8683    2.5317   -1.2196 H         1 <0>         0.0845
     51 H21        -0.0895   -1.1465   -2.3414 H         1 <0>         0.0801
     52 H22        -1.3767   -0.4165   -3.3598 H         1 <0>         0.0833
     53 H23         1.3513   -1.1489   -4.1643 H         1 <0>         0.0854
     54 H24         0.0642   -0.4189   -5.1827 H         1 <0>         0.0865
     55 H25         2.0589    1.2864   -4.8893 H         1 <0>         0.4621
     56 H26        -4.2790    4.7351    6.8353 H         1 <0>         0.1299
     57 H27        -6.4944    5.3557    7.7118 H         1 <0>         0.1398
     58 H28        -7.9864    5.6494    3.7229 H         1 <0>         0.1413
     59 H29        -5.7671    5.0383    2.8499 H         1 <0>         0.1340
     60 H30         0.1767    3.1594    3.8160 H         1 <0>         0.4384
@<TRIPOS>BOND
     1    1    6 ar
     2    1    2 ar
     3    1   33 1
     4    2    3 ar
     5    2   34 1
     6    3    4 ar
     7    3   35 1
     8    4   10 1
     9    4    5 ar
    10    5    6 ar
    11    5    7 1
    12    6   36 1
    13    7    8 1
    14    7    9 1
    15    7   26 1
    16    9   10 1
    17    9   37 1
    18    9   38 1
    19   10   11 1
    20   10   12 1
    21   12   17 1
    22   12   13 1
    23   12   60 1
    24   13   14 1
    25   13   39 1
    26   13   40 1
    27   14   15 1
    28   14   41 1
    29   14   42 1
    30   15   16 1
    31   15   18 1
    32   16   17 1
    33   16   43 1
    34   16   44 1
    35   17   45 1
    36   17   46 1
    37   18   19 1
    38   18   47 1
    39   18   48 1
    40   19   20 1
    41   19   49 1
    42   19   50 1
    43   20   24 am
    44   20   21 1
    45   21   22 1
    46   21   51 1
    47   21   52 1
    48   22   23 1
    49   22   53 1
    50   22   54 1
    51   23   24 am
    52   23   55 1
    53   24   25 2
    54   26   31 ar
    55   26   27 ar
    56   27   28 ar
    57   27   56 1
    58   28   29 ar
    59   28   57 1
    60   29   30 ar
    61   29   32 1
    62   30   31 ar
    63   30   58 1
    64   31   59 1
@<TRIPOS>MOLECULE
ZINC22463226
   60    64     0     0     0
SMALL
USER_CHARGES
1-[2-[4-[(1R,3S)-3-(4-fluorophenyl)indan-1-yl]piperazin-1-yl]ethyl]imidazolidin-2-one
@<TRIPOS>ATOM
      1 C1         -1.4356    7.5535    5.2729 C.ar      1 <0>        -0.1042
      2 C2         -0.3028    6.8760    5.6842 C.ar      1 <0>        -0.1152
      3 C3         -0.2621    5.4972    5.6174 C.ar      1 <0>        -0.0834
      4 C4         -1.3531    4.7900    5.1400 C.ar      1 <0>        -0.0971
      5 C5         -2.4856    5.4674    4.7289 C.ar      1 <0>        -0.0865
      6 C6         -2.5243    6.8502    4.7962 C.ar      1 <0>        -0.0989
      7 C7         -3.5288    4.4789    4.2537 C.3       1 <0>        -0.0111
      8 H1         -3.6195    4.4787    3.1574 H         1 <0>         0.0937
      9 C8         -3.0833    3.1158    4.8245 C.3       1 <0>        -0.1428
     10 C9         -1.5577    3.3000    4.9693 C.3       1 <0>         0.1348
     11 H2         -1.1163    2.7203    5.7934 H         1 <0>         0.1058
     12 N1         -0.8702    2.8262    3.7606 N.3       1 <0>        -0.5274
     13 C10        -0.8762    1.3583    3.6925 C.3       1 <0>         0.0227
     14 C11        -0.0838    0.9040    2.4644 C.3       1 <0>         0.0028
     15 N2         -0.6822    1.4869    1.2554 N.4       1 <0>        -0.3955
     16 C12        -0.6761    2.9549    1.3235 C.3       1 <0>        -0.0050
     17 C13        -1.4685    3.4092    2.5516 C.3       1 <0>         0.0160
     18 C14         0.0054    1.0132    0.0468 C.3       1 <0>        -0.0287
     19 C15        -0.7895    1.4349   -1.1906 C.3       1 <0>         0.1317
     20 N3         -0.1038    0.9625   -2.3959 N.am      1 <0>        -0.6376
     21 C16        -0.3248   -0.3369   -3.0480 C.3       1 <0>         0.0862
     22 C17         0.6388   -0.3153   -4.2504 C.3       1 <0>         0.0797
     23 N4          1.3005    0.9940   -4.1481 N.am      1 <0>        -0.7417
     24 C18         0.8200    1.6478   -3.0824 C.2       1 <0>         0.7081
     25 O1          1.1916    2.7611   -2.7646 O.2       1 <0>        -0.5805
     26 C19        -4.8867    4.8538    4.7892 C.ar      1 <0>        -0.1007
     27 C20        -5.0919    4.9378    6.1537 C.ar      1 <0>        -0.0782
     28 C21        -6.3354    5.2862    6.6458 C.ar      1 <0>        -0.1495
     29 C22        -7.3787    5.5409    5.7719 C.ar      1 <0>         0.1047
     30 C23        -7.1733    5.4513    4.4055 C.ar      1 <0>        -0.1509
     31 C24        -5.9276    5.1079    3.9156 C.ar      1 <0>        -0.0868
     32 F1         -8.5960    5.8769    6.2520 F         1 <0>        -0.1348
     33 H3         -1.4689    8.6318    5.3241 H         1 <0>         0.1286
     34 H4          0.5494    7.4244    6.0576 H         1 <0>         0.1288
     35 H5          0.6231    4.9686    5.9389 H         1 <0>         0.1232
     36 H6         -3.4090    7.3801    4.4754 H         1 <0>         0.1214
     37 H7         -3.5861    2.9393    5.7868 H         1 <0>         0.0958
     38 H8         -3.3526    2.3168    4.1181 H         1 <0>         0.0786
     39 H9         -0.4130    0.9472    4.6016 H         1 <0>         0.1256
     40 H10        -1.9130    0.9991    3.6146 H         1 <0>         0.0639
     41 H11         0.9597    1.2396    2.5566 H         1 <0>         0.1361
     42 H12        -0.1112   -0.1935    2.3957 H         1 <0>         0.1363
     43 H13         0.3607    3.3140    1.4014 H         1 <0>         0.1375
     44 H14        -1.1392    3.3661    0.4144 H         1 <0>         0.1359
     45 H15        -2.5121    3.0736    2.4606 H         1 <0>         0.0667
     46 H16        -1.4411    4.5066    2.6215 H         1 <0>         0.1265
     47 H17         1.0131    1.4521    0.0024 H         1 <0>         0.1329
     48 H18         0.0842   -0.0836    0.0758 H         1 <0>         0.1326
     49 H19        -1.7972    0.9960   -1.1462 H         1 <0>         0.1023
     50 H20        -0.8683    2.5317   -1.2196 H         1 <0>         0.1057
     51 H21        -0.0895   -1.1465   -2.3414 H         1 <0>         0.0830
     52 H22        -1.3767   -0.4165   -3.3598 H         1 <0>         0.0877
     53 H23         1.3513   -1.1489   -4.1643 H         1 <0>         0.0900
     54 H24         0.0642   -0.4189   -5.1827 H         1 <0>         0.0908
     55 H25         2.0589    1.2864   -4.8893 H         1 <0>         0.4681
     56 H26        -4.2790    4.7351    6.8353 H         1 <0>         0.1306
     57 H27        -6.4944    5.3557    7.7118 H         1 <0>         0.1383
     58 H28        -7.9864    5.6494    3.7229 H         1 <0>         0.1382
     59 H29        -5.7671    5.0383    2.8499 H         1 <0>         0.1298
     60 H30        -1.7290    1.1536    1.1999 H         1 <0>         0.4358
@<TRIPOS>BOND
     1    1    6 ar
     2    1    2 ar
     3    1   33 1
     4    2    3 ar
     5    2   34 1
     6    3    4 ar
     7    3   35 1
     8    4   10 1
     9    4    5 ar
    10    5    6 ar
    11    5    7 1
    12    6   36 1
    13    7    8 1
    14    7    9 1
    15    7   26 1
    16    9   10 1
    17    9   37 1
    18    9   38 1
    19   10   11 1
    20   10   12 1
    21   12   17 1
    22   12   13 1
    23   13   14 1
    24   13   39 1
    25   13   40 1
    26   14   15 1
    27   14   41 1
    28   14   42 1
    29   15   16 1
    30   15   18 1
    31   15   60 1
    32   16   17 1
    33   16   43 1
    34   16   44 1
    35   17   45 1
    36   17   46 1
    37   18   19 1
    38   18   47 1
    39   18   48 1
    40   19   20 1
    41   19   49 1
    42   19   50 1
    43   20   24 am
    44   20   21 1
    45   21   22 1
    46   21   51 1
    47   21   52 1
    48   22   23 1
    49   22   53 1
    50   22   54 1
    51   23   24 am
    52   23   55 1
    53   24   25 2
    54   26   31 ar
    55   26   27 ar
    56   27   28 ar
    57   27   56 1
    58   28   29 ar
    59   28   57 1
    60   29   30 ar
    61   29   32 1
    62   30   31 ar
    63   30   58 1
    64   31   59 1
@<TRIPOS>MOLECULE
ZINC05698964
   40    42     0     0     0
SMALL
USER_CHARGES

@<TRIPOS>ATOM
      1 C1         -0.0178    1.4648    0.0101 C.3       1 <0>        -0.0428
      2 N1          0.0021   -0.0041    0.0020 N.4       1 <0>        -0.3990
      3 C2          0.7720   -0.5069   -1.1648 C.3       1 <0>         0.0022
      4 C3          1.1903   -1.9387   -0.7670 C.3       1 <0>        -0.0535
      5 H1          0.4766   -2.6639   -1.1577 H         1 <0>         0.1275
      6 C4          1.1732   -1.9474    0.7755 C.3       1 <0>        -0.1588
      7 H2          2.1671   -2.1694    1.1639 H         1 <0>         0.1481
      8 C5          0.7459   -0.5201    1.1799 C.3       1 <0>         0.0084
      9 C6          0.1764   -2.9578    1.2821 C.2       1 <0>         0.4050
     10 O1         -0.7628   -3.2837    0.5878 O.2       1 <0>        -0.4318
     11 C7          0.3429   -3.5487    2.6188 C.ar      1 <0>        -0.1853
     12 C8          1.4220   -3.1707    3.4248 C.ar      1 <0>        -0.0617
     13 C9          1.5714   -3.7282    4.6763 C.ar      1 <0>        -0.1210
     14 C10         0.6561   -4.6612    5.1366 C.ar      1 <0>         0.0060
     15 C11        -0.4152   -5.0403    4.3437 C.ar      1 <0>        -0.1194
     16 C12        -0.5804   -4.4869    3.0924 C.ar      1 <0>        -0.0382
     17 Cl1         0.8529   -5.3590    6.7139 Cl        1 <0>        -0.0402
     18 C13         2.5752   -2.2406   -1.2789 C.ar      1 <0>        -0.1048
     19 C14         3.6427   -1.4529   -0.8903 C.ar      1 <0>        -0.1196
     20 C15         4.9130   -1.7299   -1.3598 C.ar      1 <0>        -0.1116
     21 C16         5.1160   -2.7948   -2.2175 C.ar      1 <0>        -0.1019
     22 C17         4.0486   -3.5830   -2.6054 C.ar      1 <0>        -0.1089
     23 C18         2.7790   -3.3086   -2.1325 C.ar      1 <0>        -0.0996
     24 H3          1.0047    1.8421    0.0024 H         1 <0>         0.1238
     25 H4         -0.5450    1.8259   -0.8730 H         1 <0>         0.1269
     26 H5         -0.5280    1.8163    0.9069 H         1 <0>         0.1256
     27 H6          0.1431   -0.5280   -2.0547 H         1 <0>         0.1424
     28 H7          1.6524    0.1129   -1.3350 H         1 <0>         0.1398
     29 H8          1.6221    0.0976    1.3767 H         1 <0>         0.1493
     30 H9          0.0972   -0.5512    2.0554 H         1 <0>         0.1402
     31 H10         2.1366   -2.4442    3.0671 H         1 <0>         0.1393
     32 H11         2.4040   -3.4374    5.2997 H         1 <0>         0.1469
     33 H12        -1.1245   -5.7683    4.7087 H         1 <0>         0.1480
     34 H13        -1.4182   -4.7802    2.4771 H         1 <0>         0.1470
     35 H14         3.4841   -0.6210   -0.2202 H         1 <0>         0.1186
     36 H15         5.7469   -1.1141   -1.0568 H         1 <0>         0.1300
     37 H16         6.1083   -3.0107   -2.5849 H         1 <0>         0.1310
     38 H17         4.2071   -4.4148   -3.2758 H         1 <0>         0.1317
     39 H18         1.9457   -3.9267   -2.4326 H         1 <0>         0.1275
     40 H19        -0.9383   -0.3697   -0.0094 H         1 <0>         0.4331
@<TRIPOS>BOND
     1    1    2 1
     2    1   24 1
     3    1   25 1
     4    1   26 1
     5    2    8 1
     6    2    3 1
     7    2   40 1
     8    3    4 1
     9    3   27 1
    10    3   28 1
    11    4    5 1
    12    4    6 1
    13    4   18 1
    14    6    7 1
    15    6    8 1
    16    6    9 1
    17    8   29 1
    18    8   30 1
    19    9   10 2
    20    9   11 1
    21   11   16 ar
    22   11   12 ar
    23   12   13 ar
    24   12   31 1
    25   13   14 ar
    26   13   32 1
    27   14   15 ar
    28   14   17 1
    29   15   16 ar
    30   15   33 1
    31   16   34 1
    32   18   23 ar
    33   18   19 ar
    34   19   20 ar
    35   19   35 1
    36   20   21 ar
    37   20   36 1
    38   21   22 ar
    39   21   37 1
    40   22   23 ar
    41   22   38 1
    42   23   39 1
@<TRIPOS>MOLECULE
ZINC05698964
   39    41     0     0     0
SMALL
USER_CHARGES

@<TRIPOS>ATOM
      1 C1         -0.0178    1.4648    0.0101 C.3       1 <0>         0.0121
      2 N1          0.0021   -0.0041    0.0020 N.3       1 <0>        -0.5113
      3 C2          0.7880   -0.5195   -1.1485 C.3       1 <0>         0.0420
      4 C3          1.1729   -1.9586   -0.7431 C.3       1 <0>        -0.0448
      5 H1          0.4552   -2.6712   -1.1496 H         1 <0>         0.1043
      6 C4          1.1226   -1.9677    0.7986 C.3       1 <0>        -0.1323
      7 H2          2.1040   -2.2071    1.2080 H         1 <0>         0.1071
      8 C5          0.7115   -0.5335    1.1951 C.3       1 <0>         0.0463
      9 C6          0.0980   -2.9610    1.2830 C.2       1 <0>         0.4083
     10 O1         -0.8317   -3.2703    0.5685 O.2       1 <0>        -0.4306
     11 C7          0.2256   -3.5553    2.6224 C.ar      1 <0>        -0.1639
     12 C8          1.2936   -3.1965    3.4517 C.ar      1 <0>        -0.0614
     13 C9          1.4065   -3.7570    4.7056 C.ar      1 <0>        -0.1224
     14 C10         0.4656   -4.6743    5.1454 C.ar      1 <0>        -0.0062
     15 C11        -0.5949   -5.0344    4.3295 C.ar      1 <0>        -0.1217
     16 C12        -0.7238   -4.4777    3.0754 C.ar      1 <0>        -0.0478
     17 Cl1         0.6165   -5.3761    6.7260 Cl        1 <0>        -0.0584
     18 C13         2.5630   -2.2841   -1.2255 C.ar      1 <0>        -0.0793
     19 C14         3.6354   -1.5153   -0.8135 C.ar      1 <0>        -0.1167
     20 C15         4.9105   -1.8139   -1.2560 C.ar      1 <0>        -0.1171
     21 C16         5.1133   -2.8817   -2.1101 C.ar      1 <0>        -0.1206
     22 C17         4.0410   -3.6512   -2.5214 C.ar      1 <0>        -0.1157
     23 C18         2.7665   -3.3551   -2.0755 C.ar      1 <0>        -0.1112
     24 H3          1.0047    1.8421    0.0024 H         1 <0>         0.0308
     25 H4         -0.5450    1.8259   -0.8730 H         1 <0>         0.0736
     26 H5         -0.5280    1.8163    0.9069 H         1 <0>         0.0717
     27 H6          0.1779   -0.5293   -2.0517 H         1 <0>         0.0882
     28 H7          1.6823    0.0850   -1.2993 H         1 <0>         0.0527
     29 H8          1.5939    0.0689    1.4111 H         1 <0>         0.0594
     30 H9          0.0438   -0.5537    2.0565 H         1 <0>         0.0870
     31 H10         2.0281   -2.4822    3.1099 H         1 <0>         0.1407
     32 H11         2.2305   -3.4810    5.3469 H         1 <0>         0.1415
     33 H12        -1.3243   -5.7502    4.6787 H         1 <0>         0.1418
     34 H13        -1.5531   -4.7562    2.4421 H         1 <0>         0.1446
     35 H14         3.4769   -0.6810   -0.1462 H         1 <0>         0.1179
     36 H15         5.7482   -1.2127   -0.9347 H         1 <0>         0.1224
     37 H16         6.1094   -3.1146   -2.4564 H         1 <0>         0.1224
     38 H17         4.1994   -4.4852   -3.1890 H         1 <0>         0.1235
     39 H18         1.9293   -3.9586   -2.3938 H         1 <0>         0.1231
@<TRIPOS>BOND
     1    1    2 1
     2    1   24 1
     3    1   25 1
     4    1   26 1
     5    2    8 1
     6    2    3 1
     7    3    4 1
     8    3   27 1
     9    3   28 1
    10    4    5 1
    11    4    6 1
    12    4   18 1
    13    6    7 1
    14    6    8 1
    15    6    9 1
    16    8   29 1
    17    8   30 1
    18    9   10 2
    19    9   11 1
    20   11   16 ar
    21   11   12 ar
    22   12   13 ar
    23   12   31 1
    24   13   14 ar
    25   13   32 1
    26   14   15 ar
    27   14   17 1
    28   15   16 ar
    29   15   33 1
    30   16   34 1
    31   18   23 ar
    32   18   19 ar
    33   19   20 ar
    34   19   35 1
    35   20   21 ar
    36   20   36 1
    37   21   22 ar
    38   21   37 1
    39   22   23 ar
    40   22   38 1
    41   23   39 1
@<TRIPOS>MOLECULE
ZINC05525686
   40    42     0     0     0
SMALL
USER_CHARGES
(2-chlorophenyl)-[4-(4-chlorophenyl)-1-methyl-pyrrolidin-3-yl]-methanone
@<TRIPOS>ATOM
      1 C1         -0.6902    1.9921    1.2124 C.3       1 <0>        -0.0366
      2 C2          1.4169    1.8659   -0.0014 C.3       1 <0>        -0.0005
      3 C3          2.0819    0.8580   -0.9632 C.3       1 <0>        -0.0601
      4 H1          2.1496    1.2796   -1.9661 H         1 <0>         0.1323
      5 C4          1.1512   -0.3722   -0.9609 C.3       1 <0>        -0.1448
      6 H2          1.6602   -1.1746   -0.6494 H         1 <0>         0.1304
      7 C5          0.0021   -0.0041    0.0020 C.3       1 <0>         0.0054
      8 C6          0.6128   -0.6265   -2.3453 C.2       1 <0>         0.3926
      9 O1          0.5836    0.2722   -3.1590 O.2       1 <0>        -0.4123
     10 C7          0.1228   -1.9645   -2.7095 C.ar      1 <0>        -0.1818
     11 C8          0.1601   -3.0056   -1.7756 C.ar      1 <0>        -0.0648
     12 C9         -0.3050   -4.2555   -2.1231 C.ar      1 <0>        -0.1249
     13 C10        -0.7995   -4.4859   -3.3958 C.ar      1 <0>        -0.0584
     14 C11        -0.8356   -3.4646   -4.3276 C.ar      1 <0>        -0.1209
     15 C12        -0.3781   -2.2049   -3.9943 C.ar      1 <0>         0.0189
     16 Cl1        -0.4234   -0.9240   -5.1651 Cl        1 <0>        -0.0251
     17 C13         3.4517    0.4789   -0.4623 C.ar      1 <0>        -0.1014
     18 C14         3.6041   -0.0313    0.8135 C.ar      1 <0>        -0.1059
     19 C15         4.8595   -0.3844    1.2715 C.ar      1 <0>        -0.1037
     20 C16         5.9651   -0.2167    0.4569 C.ar      1 <0>        -0.0222
     21 C17         5.8127    0.2992   -0.8178 C.ar      1 <0>        -0.1012
     22 C18         4.5561    0.6467   -1.2766 C.ar      1 <0>        -0.0849
     23 Cl2         7.5432   -0.6529    1.0342 Cl        1 <0>        -0.0477
     24 H3         -0.1623    1.6431    2.0998 H         1 <0>         0.1214
     25 H4         -0.6889    3.0820    1.1940 H         1 <0>         0.1291
     26 H5         -1.7182    1.6304    1.2353 H         1 <0>         0.1268
     27 H6          1.5349    2.8829   -0.3755 H         1 <0>         0.1474
     28 H7          1.8427    1.7756    0.9978 H         1 <0>         0.1393
     29 H8          0.2065   -0.3870    1.0019 H         1 <0>         0.1489
     30 H9         -0.9452   -0.3951   -0.3694 H         1 <0>         0.1440
     31 H10         0.5488   -2.8292   -0.7835 H         1 <0>         0.1376
     32 H11        -0.2798   -5.0589   -1.4018 H         1 <0>         0.1425
     33 H12        -1.1588   -5.4689   -3.6624 H         1 <0>         0.1454
     34 H13        -1.2222   -3.6526   -5.3184 H         1 <0>         0.1470
     35 H14         2.7415   -0.1581    1.4509 H         1 <0>         0.1281
     36 H15         4.9778   -0.7871    2.2666 H         1 <0>         0.1413
     37 H16         6.6754    0.4301   -1.4542 H         1 <0>         0.1431
     38 H17         4.4371    1.0498   -2.2715 H         1 <0>         0.1381
     39 N1          0.0076    1.4569    0.0010 N.4       1 <0>        -0.3986
     40 H18        -0.4620    1.8087   -0.8415 H         1 <0>         0.4364
@<TRIPOS>BOND
     1    1   24 1
     2    1   25 1
     3    1   26 1
     4    1   39 1
     5    2    3 1
     6    2   27 1
     7    2   28 1
     8    2   39 1
     9    3    4 1
    10    3    5 1
    11    3   17 1
    12    5    6 1
    13    5    7 1
    14    5    8 1
    15    7   29 1
    16    7   30 1
    17    7   39 1
    18    8    9 2
    19    8   10 1
    20   10   15 ar
    21   10   11 ar
    22   11   12 ar
    23   11   31 1
    24   12   13 ar
    25   12   32 1
    26   13   14 ar
    27   13   33 1
    28   14   15 ar
    29   14   34 1
    30   15   16 1
    31   17   22 ar
    32   17   18 ar
    33   18   19 ar
    34   18   35 1
    35   19   20 ar
    36   19   36 1
    37   20   21 ar
    38   20   23 1
    39   21   22 ar
    40   21   37 1
    41   22   38 1
    42   39   40 1
@<TRIPOS>MOLECULE
ZINC19796033
   36    38     0     0     0
SMALL
USER_CHARGES

@<TRIPOS>ATOM
      1 C1         -0.0178    1.4648    0.0101 C.3       1 <0>         0.0224
      2 N1          0.0021   -0.0041    0.0020 N.3       1 <0>        -0.5353
      3 C2         -1.3584   -0.5477   -0.0589 C.3       1 <0>         0.1029
      4 C3         -1.3301   -2.0508    0.0329 C.ar      1 <0>        -0.1554
      5 C4         -0.2288   -2.7303    0.5048 C.ar      1 <0>        -0.0143
      6 C5         -0.2498   -4.1152    0.5770 C.ar      1 <0>        -0.1676
      7 C6         -1.3667   -4.8215    0.1750 C.ar      1 <0>        -0.0704
      8 C7         -2.4729   -4.1471   -0.3025 C.ar      1 <0>        -0.2002
      9 C8         -2.4574   -2.7616   -0.3744 C.ar      1 <0>         0.2205
     10 N2         -3.5755   -2.0771   -0.8561 N.pl3     1 <0>        -0.8788
     11 C9          1.0178   -2.0066    0.9455 C.3       1 <0>        -0.0039
     12 H1          1.7809   -2.0968    0.1724 H         1 <0>         0.0985
     13 C10         0.7074   -0.5284    1.1824 C.3       1 <0>         0.0605
     14 C11         1.5266   -2.6201    2.2245 C.ar      1 <0>        -0.0727
     15 C12         0.7255   -2.6339    3.3509 C.ar      1 <0>        -0.1058
     16 C13         1.1922   -3.1966    4.5241 C.ar      1 <0>        -0.1186
     17 C14         2.4599   -3.7459    4.5708 C.ar      1 <0>        -0.1217
     18 C15         3.2607   -3.7329    3.4440 C.ar      1 <0>        -0.1184
     19 C16         2.7923   -3.1741    2.2696 C.ar      1 <0>        -0.1138
     20 H2          1.0047    1.8421    0.0024 H         1 <0>         0.0730
     21 H3         -0.5450    1.8259   -0.8730 H         1 <0>         0.0706
     22 H4         -0.5280    1.8163    0.9069 H         1 <0>         0.0274
     23 H5         -1.9438   -0.1473    0.7688 H         1 <0>         0.0409
     24 H6         -1.8224   -0.2529   -1.0001 H         1 <0>         0.0795
     25 H7          0.6140   -4.6455    0.9500 H         1 <0>         0.1175
     26 H8         -1.3748   -5.8998    0.2345 H         1 <0>         0.1206
     27 H9         -3.3475   -4.6962   -0.6187 H         1 <0>         0.1195
     28 H10        -3.5665   -1.1084   -0.9068 H         1 <0>         0.3961
     29 H11        -4.3610   -2.5703   -1.1400 H         1 <0>         0.3988
     30 H12         1.6368    0.0221    1.3281 H         1 <0>         0.0820
     31 H13         0.0745   -0.4238    2.0636 H         1 <0>         0.0431
     32 H14        -0.2649   -2.2047    3.3145 H         1 <0>         0.1167
     33 H15         0.5666   -3.2067    5.4044 H         1 <0>         0.1205
     34 H16         2.8248   -4.1849    5.4876 H         1 <0>         0.1207
     35 H17         4.2512   -4.1618    3.4806 H         1 <0>         0.1222
     36 H18         3.4165   -3.1672    1.3883 H         1 <0>         0.1227
@<TRIPOS>BOND
     1    1    2 1
     2    1   20 1
     3    1   21 1
     4    1   22 1
     5    2   13 1
     6    2    3 1
     7    3    4 1
     8    3   23 1
     9    3   24 1
    10    4    9 ar
    11    4    5 ar
    12    5    6 ar
    13    5   11 1
    14    6    7 ar
    15    6   25 1
    16    7    8 ar
    17    7   26 1
    18    8    9 ar
    19    8   27 1
    20    9   10 1
    21   10   28 1
    22   10   29 1
    23   11   12 1
    24   11   13 1
    25   11   14 1
    26   13   30 1
    27   13   31 1
    28   14   19 ar
    29   14   15 ar
    30   15   16 ar
    31   15   32 1
    32   16   17 ar
    33   16   33 1
    34   17   18 ar
    35   17   34 1
    36   18   19 ar
    37   18   35 1
    38   19   36 1
@<TRIPOS>MOLECULE
ZINC19796035
   36    38     0     0     0
SMALL
USER_CHARGES

@<TRIPOS>ATOM
      1 C1         -0.0178    1.4648    0.0101 C.3       1 <0>         0.0224
      2 N1          0.0021   -0.0041    0.0020 N.3       1 <0>        -0.5354
      3 C2          0.6196   -0.5145   -1.2261 C.3       1 <0>         0.1029
      4 C3          0.7237   -2.0163   -1.1791 C.ar      1 <0>        -0.1554
      5 C4          0.6216   -2.7160    0.0029 C.ar      1 <0>        -0.0142
      6 C5          0.7294   -4.0988   -0.0009 C.ar      1 <0>        -0.1676
      7 C6          0.9348   -4.7828   -1.1831 C.ar      1 <0>        -0.0705
      8 C7          1.0345   -4.0881   -2.3723 C.ar      1 <0>        -0.2002
      9 C8          0.9296   -2.7047   -2.3731 C.ar      1 <0>         0.2204
     10 N2          1.0301   -1.9997   -3.5747 N.pl3     1 <0>        -0.8788
     11 C9          0.3870   -2.0173    1.3177 C.3       1 <0>        -0.0039
     12 H1         -0.6560   -2.1377    1.6104 H         1 <0>         0.0985
     13 C10         0.7074   -0.5284    1.1824 C.3       1 <0>         0.0604
     14 C11         1.2759   -2.6243    2.3724 C.ar      1 <0>        -0.0726
     15 C12         2.6495   -2.5915    2.2212 C.ar      1 <0>        -0.1060
     16 C13         3.4649   -3.1484    3.1886 C.ar      1 <0>        -0.1185
     17 C14         2.9066   -3.7376    4.3076 C.ar      1 <0>        -0.1217
     18 C15         1.5330   -3.7696    4.4593 C.ar      1 <0>        -0.1184
     19 C16         0.7178   -3.2089    3.4939 C.ar      1 <0>        -0.1138
     20 H2          1.0047    1.8421    0.0024 H         1 <0>         0.0274
     21 H3         -0.5450    1.8259   -0.8730 H         1 <0>         0.0706
     22 H4         -0.5280    1.8163    0.9069 H         1 <0>         0.0730
     23 H5          0.0126   -0.2221   -2.0830 H         1 <0>         0.0795
     24 H6          1.6168   -0.0874   -1.3324 H         1 <0>         0.0409
     25 H7          0.6525   -4.6448    0.9277 H         1 <0>         0.1175
     26 H8          1.0177   -5.8596   -1.1774 H         1 <0>         0.1206
     27 H9          1.1940   -4.6199   -3.2987 H         1 <0>         0.1195
     28 H10         0.9566   -1.0325   -3.5771 H         1 <0>         0.3961
     29 H11         1.1734   -2.4773   -4.4067 H         1 <0>         0.3988
     30 H12         1.7818   -0.3951    1.0561 H         1 <0>         0.0431
     31 H13         0.3722    0.0008    2.0743 H         1 <0>         0.0820
     32 H14         3.0857   -2.1312    1.3470 H         1 <0>         0.1167
     33 H15         4.5381   -3.1234    3.0701 H         1 <0>         0.1205
     34 H16         3.5436   -4.1733    5.0631 H         1 <0>         0.1207
     35 H17         1.0968   -4.2302    5.3333 H         1 <0>         0.1222
     36 H18        -0.3553   -3.2306    3.6142 H         1 <0>         0.1227
@<TRIPOS>BOND
     1    1    2 1
     2    1   20 1
     3    1   21 1
     4    1   22 1
     5    2   13 1
     6    2    3 1
     7    3    4 1
     8    3   23 1
     9    3   24 1
    10    4    9 ar
    11    4    5 ar
    12    5    6 ar
    13    5   11 1
    14    6    7 ar
    15    6   25 1
    16    7    8 ar
    17    7   26 1
    18    8    9 ar
    19    8   27 1
    20    9   10 1
    21   10   28 1
    22   10   29 1
    23   11   12 1
    24   11   13 1
    25   11   14 1
    26   13   30 1
    27   13   31 1
    28   14   19 ar
    29   14   15 ar
    30   15   16 ar
    31   15   32 1
    32   16   17 ar
    33   16   33 1
    34   17   18 ar
    35   17   34 1
    36   18   19 ar
    37   18   35 1
    38   19   36 1
@<TRIPOS>MOLECULE
ZINC22920326
   52    55     0     0     0
SMALL
USER_CHARGES

@<TRIPOS>ATOM
      1 C1         -0.0187    1.5258    0.0104 C.3       1 <0>        -0.1827
      2 C2          0.0021   -0.0041    0.0020 C.3       1 <0>         0.0324
      3 H1          0.5123   -0.3556   -0.8948 H         1 <0>         0.1471
      4 C3         -1.4336   -0.5337    0.0128 C.3       1 <0>         0.0302
      5 N1         -1.4105   -2.0032    0.0241 N.3       1 <0>        -0.5388
      6 C4         -0.6807   -2.5048    1.1971 C.3       1 <0>         0.0254
      7 C5          0.7488   -1.9589    1.1765 C.3       1 <0>         0.0324
      8 H2          1.2551   -2.3004    0.2737 H         1 <0>         0.1469
      9 N2          0.7126   -0.4906    1.1920 N.4       1 <0>        -0.5065
     10 C6          1.5050   -2.4634    2.4072 C.3       1 <0>        -0.1830
     11 C7         -2.7725   -2.5515   -0.0226 C.3       1 <0>         0.0584
     12 C8         -2.7066   -4.0615   -0.2601 C.3       1 <0>        -0.1372
     13 C9         -4.1252   -4.6325   -0.3086 C.3       1 <0>         0.1179
     14 N3         -4.0621   -6.0784   -0.5361 N.pl3     1 <0>        -0.5074
     15 C10        -4.0541   -6.6836   -1.7801 C.ar      1 <0>         0.1407
     16 C11        -4.0985   -6.1695   -3.0725 C.ar      1 <0>        -0.1448
     17 C12        -4.0764   -7.0219   -4.1553 C.ar      1 <0>        -0.0811
     18 C13        -4.0101   -8.3944   -3.9712 C.ar      1 <0>        -0.1474
     19 C14        -3.9653   -8.9226   -2.6989 C.ar      1 <0>        -0.0594
     20 C15        -3.9865   -8.0726   -1.5959 C.ar      1 <0>        -0.1043
     21 C16        -3.9523   -8.3002   -0.1394 C.ar      1 <0>        -0.1029
     22 C17        -3.9960   -7.0338    0.4624 C.ar      1 <0>         0.1405
     23 C18        -3.9715   -6.9383    1.8504 C.ar      1 <0>        -0.1477
     24 C19        -3.9014   -8.0799    2.6195 C.ar      1 <0>        -0.0822
     25 C20        -3.8544   -9.3304    2.0229 C.ar      1 <0>        -0.1486
     26 C21        -3.8863   -9.4459    0.6497 C.ar      1 <0>        -0.0582
     27 H3          1.0039    1.9031    0.0027 H         1 <0>         0.0866
     28 H4         -0.5459    1.8868   -0.8726 H         1 <0>         0.1092
     29 H5         -0.5289    1.8773    0.9072 H         1 <0>         0.0810
     30 H6         -1.9483   -0.1712    0.9026 H         1 <0>         0.0620
     31 H7         -1.9566   -0.1850   -0.8777 H         1 <0>         0.1241
     32 H8         -1.1830   -2.1748    2.1064 H         1 <0>         0.0623
     33 H9         -0.6544   -3.5942    1.1706 H         1 <0>         0.1243
     34 H10         1.6553   -0.1311    1.1910 H         1 <0>         0.4302
     35 H11         1.5320   -3.5530    2.3957 H         1 <0>         0.1089
     36 H12         2.5232   -2.0745    2.3925 H         1 <0>         0.0870
     37 H13         0.9987   -2.1220    3.3100 H         1 <0>         0.0811
     38 H14        -3.2762   -2.3542    0.9237 H         1 <0>         0.0503
     39 H15        -3.3265   -2.0799   -0.8342 H         1 <0>         0.0927
     40 H16        -2.2029   -4.2588   -1.2064 H         1 <0>         0.0839
     41 H17        -2.1527   -4.5331    0.5516 H         1 <0>         0.0704
     42 H18        -4.6289   -4.4352    0.6377 H         1 <0>         0.0866
     43 H19        -4.6792   -4.1609   -1.1203 H         1 <0>         0.0898
     44 H20        -4.1507   -5.1019   -3.2271 H         1 <0>         0.1199
     45 H21        -4.1115   -6.6172   -5.1560 H         1 <0>         0.1299
     46 H22        -3.9937   -9.0520   -4.8277 H         1 <0>         0.1294
     47 H23        -3.9144   -9.9921   -2.5578 H         1 <0>         0.1270
     48 H24        -4.0070   -5.9689    2.3254 H         1 <0>         0.1171
     49 H25        -3.8827   -7.9995    3.6964 H         1 <0>         0.1287
     50 H26        -3.7989  -10.2175    2.6363 H         1 <0>         0.1291
     51 H27        -3.8488  -10.4210    0.1871 H         1 <0>         0.1273
     52 H28         0.2335   -0.1749    2.0220 H         1 <0>         0.4215
@<TRIPOS>BOND
     1    1    2 1
     2    1   27 1
     3    1   28 1
     4    1   29 1
     5    2    3 1
     6    2    9 1
     7    2    4 1
     8    4    5 1
     9    4   30 1
    10    4   31 1
    11    5    6 1
    12    5   11 1
    13    6    7 1
    14    6   32 1
    15    6   33 1
    16    7    8 1
    17    7    9 1
    18    7   10 1
    19    9   34 1
    20    9   52 1
    21   10   35 1
    22   10   36 1
    23   10   37 1
    24   11   12 1
    25   11   38 1
    26   11   39 1
    27   12   13 1
    28   12   40 1
    29   12   41 1
    30   13   14 1
    31   13   42 1
    32   13   43 1
    33   14   22 1
    34   14   15 1
    35   15   20 ar
    36   15   16 ar
    37   16   17 ar
    38   16   44 1
    39   17   18 ar
    40   17   45 1
    41   18   19 ar
    42   18   46 1
    43   19   20 ar
    44   19   47 1
    45   20   21 1
    46   21   26 ar
    47   21   22 ar
    48   22   23 ar
    49   23   24 ar
    50   23   48 1
    51   24   25 ar
    52   24   49 1
    53   25   26 ar
    54   25   50 1
    55   26   51 1
@<TRIPOS>MOLECULE
ZINC05525683
   40    42     0     0     0
SMALL
USER_CHARGES

@<TRIPOS>ATOM
      1 C1         -0.0178    1.4648    0.0101 C.3       1 <0>        -0.0426
      2 N1          0.0021   -0.0041    0.0020 N.4       1 <0>        -0.3990
      3 C2          0.7720   -0.5069   -1.1648 C.3       1 <0>         0.0024
      4 C3          1.1903   -1.9387   -0.7670 C.3       1 <0>        -0.0540
      5 H1          0.4766   -2.6639   -1.1577 H         1 <0>         0.1272
      6 C4          1.1732   -1.9474    0.7755 C.3       1 <0>        -0.1581
      7 H2          2.1671   -2.1694    1.1639 H         1 <0>         0.1473
      8 C5          0.7459   -0.5201    1.1799 C.3       1 <0>         0.0091
      9 C6          0.1764   -2.9578    1.2821 C.2       1 <0>         0.4041
     10 O1         -0.7628   -3.2837    0.5878 O.2       1 <0>        -0.4364
     11 C7          0.3430   -3.5490    2.6195 C.ar      1 <0>        -0.1880
     12 C8          1.4217   -3.1714    3.4255 C.ar      1 <0>        -0.0755
     13 C9          1.5705   -3.7295    4.6776 C.ar      1 <0>        -0.1290
     14 C10         0.6559   -4.6610    5.1372 C.ar      1 <0>        -0.0711
     15 C11        -0.4140   -5.0402    4.3453 C.ar      1 <0>        -0.1274
     16 C12        -0.5799   -4.4870    3.0932 C.ar      1 <0>        -0.0524
     17 C13         2.5752   -2.2406   -1.2789 C.ar      1 <0>        -0.1040
     18 C14         3.6427   -1.4529   -0.8903 C.ar      1 <0>        -0.1195
     19 C15         4.9130   -1.7299   -1.3598 C.ar      1 <0>        -0.1117
     20 C16         5.1160   -2.7948   -2.2175 C.ar      1 <0>        -0.1024
     21 C17         4.0486   -3.5830   -2.6054 C.ar      1 <0>        -0.1091
     22 C18         2.7790   -3.3086   -2.1325 C.ar      1 <0>        -0.0998
     23 H3          1.0047    1.8421    0.0024 H         1 <0>         0.1235
     24 H4         -0.5450    1.8259   -0.8730 H         1 <0>         0.1266
     25 H5         -0.5280    1.8163    0.9069 H         1 <0>         0.1253
     26 H6          0.1431   -0.5280   -2.0547 H         1 <0>         0.1421
     27 H7          1.6524    0.1129   -1.3350 H         1 <0>         0.1395
     28 H8          1.6221    0.0976    1.3767 H         1 <0>         0.1484
     29 H9          0.0972   -0.5512    2.0554 H         1 <0>         0.1398
     30 H10         2.1364   -2.4448    3.0681 H         1 <0>         0.1290
     31 H11         2.4032   -3.4392    5.3011 H         1 <0>         0.1355
     32 H12         0.7779   -5.0946    6.1188 H         1 <0>         0.1355
     33 H13        -1.1233   -5.7680    4.7108 H         1 <0>         0.1368
     34 H14        -1.4177   -4.7805    2.4782 H         1 <0>         0.1367
     35 H15         3.4841   -0.6210   -0.2202 H         1 <0>         0.1185
     36 H16         5.7469   -1.1141   -1.0568 H         1 <0>         0.1299
     37 H17         6.1083   -3.0107   -2.5849 H         1 <0>         0.1309
     38 H18         4.2071   -4.4148   -3.2758 H         1 <0>         0.1316
     39 H19         1.9457   -3.9267   -2.4326 H         1 <0>         0.1274
     40 H20        -0.9383   -0.3697   -0.0094 H         1 <0>         0.4331
@<TRIPOS>BOND
     1    1    2 1
     2    1   23 1
     3    1   24 1
     4    1   25 1
     5    2    8 1
     6    2    3 1
     7    2   40 1
     8    3    4 1
     9    3   26 1
    10    3   27 1
    11    4    5 1
    12    4    6 1
    13    4   17 1
    14    6    7 1
    15    6    8 1
    16    6    9 1
    17    8   28 1
    18    8   29 1
    19    9   10 2
    20    9   11 1
    21   11   16 ar
    22   11   12 ar
    23   12   13 ar
    24   12   30 1
    25   13   14 ar
    26   13   31 1
    27   14   15 ar
    28   14   32 1
    29   15   16 ar
    30   15   33 1
    31   16   34 1
    32   17   22 ar
    33   17   18 ar
    34   18   19 ar
    35   18   35 1
    36   19   20 ar
    37   19   36 1
    38   20   21 ar
    39   20   37 1
    40   21   22 ar
    41   21   38 1
    42   22   39 1
@<TRIPOS>MOLECULE
ZINC05525683
   39    41     0     0     0
SMALL
USER_CHARGES

@<TRIPOS>ATOM
      1 C1         -0.0178    1.4648    0.0101 C.3       1 <0>         0.0122
      2 N1          0.0021   -0.0041    0.0020 N.3       1 <0>        -0.5114
      3 C2          0.7880   -0.5195   -1.1485 C.3       1 <0>         0.0422
      4 C3          1.1729   -1.9586   -0.7431 C.3       1 <0>        -0.0454
      5 H1          0.4552   -2.6712   -1.1496 H         1 <0>         0.1039
      6 C4          1.1226   -1.9677    0.7986 C.3       1 <0>        -0.1318
      7 H2          2.1040   -2.2071    1.2080 H         1 <0>         0.1062
      8 C5          0.7115   -0.5335    1.1951 C.3       1 <0>         0.0470
      9 C6          0.0980   -2.9610    1.2830 C.2       1 <0>         0.4079
     10 O1         -0.8317   -3.2702    0.5686 O.2       1 <0>        -0.4355
     11 C7          0.2256   -3.5556    2.6231 C.ar      1 <0>        -0.1683
     12 C8          1.2932   -3.1971    3.4524 C.ar      1 <0>        -0.0744
     13 C9          1.4056   -3.7583    4.7068 C.ar      1 <0>        -0.1324
     14 C10         0.4654   -4.6741    5.1460 C.ar      1 <0>        -0.0878
     15 C11        -0.5937   -5.0344    4.3311 C.ar      1 <0>        -0.1316
     16 C12        -0.7232   -4.4777    3.0763 C.ar      1 <0>        -0.0612
     17 C13         2.5630   -2.2841   -1.2255 C.ar      1 <0>        -0.0785
     18 C14         3.6354   -1.5153   -0.8135 C.ar      1 <0>        -0.1167
     19 C15         4.9105   -1.8139   -1.2560 C.ar      1 <0>        -0.1172
     20 C16         5.1133   -2.8817   -2.1101 C.ar      1 <0>        -0.1211
     21 C17         4.0410   -3.6512   -2.5214 C.ar      1 <0>        -0.1158
     22 C18         2.7665   -3.3551   -2.0755 C.ar      1 <0>        -0.1114
     23 H3          1.0047    1.8421    0.0024 H         1 <0>         0.0305
     24 H4         -0.5450    1.8259   -0.8730 H         1 <0>         0.0734
     25 H5         -0.5280    1.8163    0.9069 H         1 <0>         0.0715
     26 H6          0.1779   -0.5293   -2.0517 H         1 <0>         0.0879
     27 H7          1.6823    0.0850   -1.2993 H         1 <0>         0.0523
     28 H8          1.5939    0.0689    1.4111 H         1 <0>         0.0584
     29 H9          0.0438   -0.5537    2.0565 H         1 <0>         0.0867
     30 H10         2.0278   -2.4829    3.1109 H         1 <0>         0.1301
     31 H11         2.2297   -3.4828    5.3483 H         1 <0>         0.1296
     32 H12         0.5589   -5.1102    6.1296 H         1 <0>         0.1281
     33 H13        -1.3232   -5.7500    4.6808 H         1 <0>         0.1300
     34 H14        -1.5527   -4.7564    2.4432 H         1 <0>         0.1339
     35 H15         3.4769   -0.6810   -0.1462 H         1 <0>         0.1178
     36 H16         5.7482   -1.2127   -0.9347 H         1 <0>         0.1223
     37 H17         6.1094   -3.1146   -2.4564 H         1 <0>         0.1222
     38 H18         4.1994   -4.4852   -3.1890 H         1 <0>         0.1234
     39 H19         1.9293   -3.9586   -2.3938 H         1 <0>         0.1230
@<TRIPOS>BOND
     1    1    2 1
     2    1   23 1
     3    1   24 1
     4    1   25 1
     5    2    8 1
     6    2    3 1
     7    3    4 1
     8    3   26 1
     9    3   27 1
    10    4    5 1
    11    4    6 1
    12    4   17 1
    13    6    7 1
    14    6    8 1
    15    6    9 1
    16    8   28 1
    17    8   29 1
    18    9   10 2
    19    9   11 1
    20   11   16 ar
    21   11   12 ar
    22   12   13 ar
    23   12   30 1
    24   13   14 ar
    25   13   31 1
    26   14   15 ar
    27   14   32 1
    28   15   16 ar
    29   15   33 1
    30   16   34 1
    31   17   22 ar
    32   17   18 ar
    33   18   19 ar
    34   18   35 1
    35   19   20 ar
    36   19   36 1
    37   20   21 ar
    38   20   37 1
    39   21   22 ar
    40   21   38 1
    41   22   39 1
@<TRIPOS>MOLECULE
ZINC13806630
   43    45     0     0     0
SMALL
USER_CHARGES
methyl (3S,4S)-1-methyl-4-(2-naphthyl)piperidine-3-carboxylate
@<TRIPOS>ATOM
      1 C1          4.4193    3.9921    2.3108 C.3       1 <0>        -0.0412
      2 C2          3.1896    3.8281    0.2320 C.3       1 <0>         0.0008
      3 C3          3.2221    3.2363   -1.1790 C.3       1 <0>        -0.1517
      4 C4          4.3796    3.8612   -1.9627 C.3       1 <0>        -0.0404
      5 H1          4.2165    4.9346   -2.0594 H         1 <0>         0.1193
      6 C5          5.6904    3.6084   -1.2128 C.3       1 <0>        -0.1077
      7 H2          6.5121    4.0884   -1.7442 H         1 <0>         0.1529
      8 C6          5.5854    4.1905    0.1987 C.3       1 <0>         0.0138
      9 C7          5.9439    2.1252   -1.1286 C.2       1 <0>         0.4822
     10 O1          5.4137    1.4699   -0.2630 O.2       1 <0>        -0.5271
     11 O2          6.7586    1.5322   -2.0153 O.3       1 <0>        -0.3235
     12 C8          6.9567    0.1008   -1.8740 C.3       1 <0>         0.0289
     13 C9          4.4548    3.2378   -3.3326 C.ar      1 <0>        -0.1063
     14 C10         4.3334    1.8558   -3.4655 C.ar      1 <0>        -0.1219
     15 C11         4.3958    1.2612   -4.6881 C.ar      1 <0>        -0.0867
     16 C12         4.5874    2.0494   -5.8357 C.ar      1 <0>        -0.0449
     17 C13         4.6579    1.4715   -7.1149 C.ar      1 <0>        -0.1091
     18 C14         4.8490    2.2661   -8.2031 C.ar      1 <0>        -0.1043
     19 C15         4.9649    3.6487   -8.0708 C.ar      1 <0>        -0.1065
     20 C16         4.9020    4.2432   -6.8482 C.ar      1 <0>        -0.1077
     21 C17         4.7113    3.4547   -5.7005 C.ar      1 <0>        -0.0512
     22 C18         4.6407    4.0328   -4.4215 C.ar      1 <0>        -0.0772
     23 H3          4.2944    5.0740    2.3533 H         1 <0>         0.1219
     24 H4          3.5806    3.5095    2.8127 H         1 <0>         0.1222
     25 H5          5.3488    3.7138    2.8076 H         1 <0>         0.1193
     26 H6          2.3761    3.3739    0.7977 H         1 <0>         0.1316
     27 H7          3.0317    4.9048    0.1696 H         1 <0>         0.1313
     28 H8          2.2815    3.4507   -1.6863 H         1 <0>         0.1215
     29 H9          3.3651    2.1575   -1.1170 H         1 <0>         0.0939
     30 H10         6.5120    3.9995    0.7401 H         1 <0>         0.1341
     31 H11         5.4162    5.2655    0.1365 H         1 <0>         0.1491
     32 H12         7.3853   -0.1118   -0.8946 H         1 <0>         0.0730
     33 H13         5.9984   -0.4098   -1.9697 H         1 <0>         0.0722
     34 H14         7.6349   -0.2508   -2.6515 H         1 <0>         0.1149
     35 H15         4.1871    1.2476   -2.5851 H         1 <0>         0.1114
     36 H16         4.2994    0.1891   -4.7759 H         1 <0>         0.1294
     37 H17         4.5655    0.4020   -7.2332 H         1 <0>         0.1308
     38 H18         4.9069    1.8190   -9.1845 H         1 <0>         0.1294
     39 H19         5.1118    4.2569   -8.9511 H         1 <0>         0.1293
     40 H20         4.9977    5.3154   -6.7604 H         1 <0>         0.1306
     41 H21         4.7332    5.1023   -4.3033 H         1 <0>         0.1313
     42 N1          4.4699    3.5294    0.9086 N.4       1 <0>        -0.4030
     43 H22         4.6233    2.5143    0.8978 H         1 <0>         0.4353
@<TRIPOS>BOND
     1    1   23 1
     2    1   24 1
     3    1   25 1
     4    1   42 1
     5    2    3 1
     6    2   26 1
     7    2   27 1
     8    2   42 1
     9    3    4 1
    10    3   28 1
    11    3   29 1
    12    4    5 1
    13    4    6 1
    14    4   13 1
    15    6    7 1
    16    6    8 1
    17    6    9 1
    18    8   30 1
    19    8   31 1
    20    8   42 1
    21    9   10 2
    22    9   11 1
    23   11   12 1
    24   12   32 1
    25   12   33 1
    26   12   34 1
    27   13   22 ar
    28   13   14 ar
    29   14   15 ar
    30   14   35 1
    31   15   16 ar
    32   15   36 1
    33   16   21 ar
    34   16   17 ar
    35   17   18 ar
    36   17   37 1
    37   18   19 ar
    38   18   38 1
    39   19   20 ar
    40   19   39 1
    41   20   21 ar
    42   20   40 1
    43   21   22 ar
    44   22   41 1
    45   42   43 1
@<TRIPOS>MOLECULE
ZINC13806636
   43    45     0     0     0
SMALL
USER_CHARGES
methyl (3S,4R)-1-methyl-4-(2-naphthyl)piperidine-3-carboxylate
@<TRIPOS>ATOM
      1 C1         -5.5399   -1.3093    0.0432 C.3       1 <0>        -0.0423
      2 C2         -3.4623   -1.1202   -1.1848 C.3       1 <0>        -0.0057
      3 C3         -2.1169   -0.3923   -1.2298 C.3       1 <0>        -0.1402
      4 C4         -1.2992   -0.7640    0.0103 C.3       1 <0>        -0.0398
      5 H1         -1.0957   -1.8349    0.0049 H         1 <0>         0.1053
      6 C5         -2.0966   -0.3997    1.2658 C.3       1 <0>        -0.0978
      7 H2         -2.2654    0.6768    1.2900 H         1 <0>         0.1318
      8 C6         -3.4425   -1.1275    1.2384 C.3       1 <0>         0.0054
      9 C7         -1.3242   -0.8164    2.4909 C.2       1 <0>         0.4621
     10 O1         -0.2465   -1.3500    2.3731 O.2       1 <0>        -0.4640
     11 O2         -1.8334   -0.5947    3.7129 O.3       1 <0>        -0.3607
     12 C8         -1.0344   -1.0222    4.8474 C.3       1 <0>         0.0356
     13 C9          0.0021   -0.0041    0.0020 C.ar      1 <0>        -0.1015
     14 C10        -0.0168    1.3896    0.0097 C.ar      1 <0>        -0.1245
     15 C11         1.1402    2.1060    0.0025 C.ar      1 <0>        -0.0961
     16 C12         2.3743    1.4338   -0.0129 C.ar      1 <0>        -0.0479
     17 C13         3.5897    2.1393   -0.0207 C.ar      1 <0>        -0.1104
     18 C14         4.7657    1.4546   -0.0361 C.ar      1 <0>        -0.1059
     19 C15         4.7846    0.0610   -0.0442 C.ar      1 <0>        -0.1094
     20 C16         3.6276   -0.6555   -0.0374 C.ar      1 <0>        -0.1057
     21 C17         2.3935    0.0168   -0.0211 C.ar      1 <0>        -0.0528
     22 C18         1.1781   -0.6888   -0.0133 C.ar      1 <0>        -0.0565
     23 H3         -5.4747   -2.3970    0.0726 H         1 <0>         0.1246
     24 H4         -6.0785   -0.9538    0.9216 H         1 <0>         0.1244
     25 H5         -6.0706   -1.0014   -0.8577 H         1 <0>         0.1260
     26 H6         -4.0526   -0.8466   -2.0593 H         1 <0>         0.1363
     27 H7         -3.2927   -2.1970   -1.1835 H         1 <0>         0.1339
     28 H8         -2.2860    0.6844   -1.2448 H         1 <0>         0.0947
     29 H9         -1.5724   -0.6877   -2.1266 H         1 <0>         0.1231
     30 H10        -4.0186   -0.8591    2.1239 H         1 <0>         0.1447
     31 H11        -3.2729   -2.2041    1.2280 H         1 <0>         0.1380
     32 H12        -0.8683   -2.0980    4.7901 H         1 <0>         0.0695
     33 H13        -0.0750   -0.5051    4.8317 H         1 <0>         0.0701
     34 H14        -1.5601   -0.7845    5.7722 H         1 <0>         0.1106
     35 H15        -0.9639    1.9086    0.0170 H         1 <0>         0.1161
     36 H16         1.1102    3.1856    0.0082 H         1 <0>         0.1297
     37 H17         3.5905    3.2193   -0.0142 H         1 <0>         0.1301
     38 H18         5.6983    1.9992   -0.0418 H         1 <0>         0.1284
     39 H19         5.7316   -0.4581   -0.0561 H         1 <0>         0.1282
     40 H20         3.6576   -1.7351   -0.0435 H         1 <0>         0.1290
     41 H21         1.1773   -1.7688   -0.0191 H         1 <0>         0.1271
     42 N1         -4.1904   -0.7080    0.0342 N.4       1 <0>        -0.3945
     43 H22        -4.2811    0.3147    0.0380 H         1 <0>         0.4311
@<TRIPOS>BOND
     1    1   23 1
     2    1   24 1
     3    1   25 1
     4    1   42 1
     5    2    3 1
     6    2   26 1
     7    2   27 1
     8    2   42 1
     9    3    4 1
    10    3   28 1
    11    3   29 1
    12    4    5 1
    13    4    6 1
    14    4   13 1
    15    6    7 1
    16    6    8 1
    17    6    9 1
    18    8   30 1
    19    8   31 1
    20    8   42 1
    21    9   10 2
    22    9   11 1
    23   11   12 1
    24   12   32 1
    25   12   33 1
    26   12   34 1
    27   13   22 ar
    28   13   14 ar
    29   14   15 ar
    30   14   35 1
    31   15   16 ar
    32   15   36 1
    33   16   21 ar
    34   16   17 ar
    35   17   18 ar
    36   17   37 1
    37   18   19 ar
    38   18   38 1
    39   19   20 ar
    40   19   39 1
    41   20   21 ar
    42   20   40 1
    43   21   22 ar
    44   22   41 1
    45   42   43 1
@<TRIPOS>MOLECULE
ZINC22034135
   66    69     0     0     0
SMALL
USER_CHARGES

@<TRIPOS>ATOM
      1 C1         -0.0167    1.3781    0.0096 C.ar      1 <0>        -0.1131
      2 C2          1.1709    2.0855    0.0021 C.ar      1 <0>        -0.1153
      3 C3          2.3773    1.4107   -0.0130 C.ar      1 <0>        -0.1156
      4 C4          2.3960    0.0285   -0.0201 C.ar      1 <0>        -0.1009
      5 C5          1.2084   -0.6789   -0.0117 C.ar      1 <0>        -0.1157
      6 C6          0.0021   -0.0041    0.0020 C.ar      1 <0>        -0.1154
      7 C7          3.7112   -0.7071   -0.0376 C.3       1 <0>        -0.0726
      8 C8          4.1714   -0.9633    1.3989 C.3       1 <0>        -0.1434
      9 C9          5.5066   -1.7102    1.3812 C.3       1 <0>        -0.0095
     10 N1          5.9484   -1.9561    2.7604 N.4       1 <0>        -0.3863
     11 C10         6.2271   -0.6741    3.4209 C.3       1 <0>        -0.0057
     12 C11         6.6694   -0.9289    4.8636 C.3       1 <0>         0.0272
     13 N2          7.8739   -1.7710    4.8622 N.3       1 <0>        -0.5275
     14 C12         7.6170   -3.0483    4.1820 C.3       1 <0>         0.0211
     15 C13         7.1670   -2.7761    2.7450 C.3       1 <0>        -0.0010
     16 C14         8.3634   -1.9918    6.2295 C.3       1 <0>         0.0576
     17 C15         9.7419   -2.6536    6.1771 C.3       1 <0>         0.0611
     18 O1         10.6793   -1.7551    5.5805 O.3       1 <0>        -0.3549
     19 C16        12.0053   -2.2788    5.4830 C.3       1 <0>         0.1802
     20 C17        12.1668   -2.9959    4.1674 C.ar      1 <0>        -0.1229
     21 C18        11.6122   -2.4639    3.0182 C.ar      1 <0>        -0.0610
     22 C19        11.7600   -3.1204    1.8112 C.ar      1 <0>        -0.1619
     23 C20        12.4639   -4.3113    1.7531 C.ar      1 <0>         0.1058
     24 C21        13.0188   -4.8431    2.9047 C.ar      1 <0>        -0.1524
     25 C22        12.8742   -4.1822    4.1097 C.ar      1 <0>        -0.0774
     26 F1         12.6086   -4.9542    0.5737 F         1 <0>        -0.1364
     27 C23        12.9989   -1.1487    5.5644 C.ar      1 <0>        -0.1020
     28 C24        12.6924    0.0816    5.0134 C.ar      1 <0>        -0.0595
     29 C25        13.6026    1.1188    5.0879 C.ar      1 <0>        -0.1570
     30 C26        14.8220    0.9254    5.7146 C.ar      1 <0>         0.1083
     31 C27        15.1279   -0.3072    6.2661 C.ar      1 <0>        -0.1519
     32 C28        14.2140   -1.3414    6.1951 C.ar      1 <0>        -0.0774
     33 F2         15.7128    1.9385    5.7876 F         1 <0>        -0.1352
     34 H1         -0.9591    1.9053    0.0259 H         1 <0>         0.1265
     35 H2          1.1563    3.1654    0.0076 H         1 <0>         0.1262
     36 H3          3.3051    1.9634   -0.0196 H         1 <0>         0.1215
     37 H4          1.2231   -1.7588   -0.0176 H         1 <0>         0.1212
     38 H5         -0.9258   -0.5567    0.0082 H         1 <0>         0.1260
     39 H6          3.5884   -1.6586   -0.5549 H         1 <0>         0.0828
     40 H7          4.4573   -0.1052   -0.5563 H         1 <0>         0.0831
     41 H8          4.2941   -0.0118    1.9163 H         1 <0>         0.0886
     42 H9          3.4252   -1.5652    1.9176 H         1 <0>         0.0874
     43 H10         5.3838   -2.6617    0.8639 H         1 <0>         0.1318
     44 H11         6.2527   -1.1082    0.8625 H         1 <0>         0.1319
     45 H12         7.0204   -0.1538    2.8842 H         1 <0>         0.1386
     46 H13         5.3256   -0.0614    3.4201 H         1 <0>         0.1357
     47 H14         6.8906    0.0215    5.3494 H         1 <0>         0.1242
     48 H15         5.8710   -1.4370    5.4044 H         1 <0>         0.0590
     49 H16         8.5296   -3.6442    4.1706 H         1 <0>         0.1234
     50 H17         6.8343   -3.5914    4.7116 H         1 <0>         0.0594
     51 H18         6.9623   -3.7217    2.2431 H         1 <0>         0.1342
     52 H19         7.9555   -2.2450    2.2118 H         1 <0>         0.1382
     53 H20         8.4389   -1.0356    6.7473 H         1 <0>         0.0998
     54 H21         7.6691   -2.6404    6.7637 H         1 <0>         0.0626
     55 H22        10.0662   -2.8982    7.1886 H         1 <0>         0.0653
     56 H23         9.6846   -3.5659    5.5833 H         1 <0>         0.0528
     57 H24        12.1812   -2.9769    6.3014 H         1 <0>         0.0816
     58 H25        11.0630   -1.5351    3.0639 H         1 <0>         0.1362
     59 H26        11.3264   -2.7048    0.9136 H         1 <0>         0.1337
     60 H27        13.5678   -5.7722    2.8606 H         1 <0>         0.1392
     61 H28        13.3108   -4.5945    5.0074 H         1 <0>         0.1338
     62 H29        11.7413    0.2321    4.5243 H         1 <0>         0.1357
     63 H30        13.3630    2.0797    4.6570 H         1 <0>         0.1373
     64 H31        16.0789   -0.4593    6.7550 H         1 <0>         0.1401
     65 H32        14.4506   -2.3016    6.6291 H         1 <0>         0.1333
     66 H33         5.2222   -2.4427    3.2643 H         1 <0>         0.4198
@<TRIPOS>BOND
     1    1    6 ar
     2    1    2 ar
     3    1   34 1
     4    2    3 ar
     5    2   35 1
     6    3    4 ar
     7    3   36 1
     8    4    5 ar
     9    4    7 1
    10    5    6 ar
    11    5   37 1
    12    6   38 1
    13    7    8 1
    14    7   39 1
    15    7   40 1
    16    8    9 1
    17    8   41 1
    18    8   42 1
    19    9   10 1
    20    9   43 1
    21    9   44 1
    22   10   15 1
    23   10   11 1
    24   10   66 1
    25   11   12 1
    26   11   45 1
    27   11   46 1
    28   12   13 1
    29   12   47 1
    30   12   48 1
    31   13   14 1
    32   13   16 1
    33   14   15 1
    34   14   49 1
    35   14   50 1
    36   15   51 1
    37   15   52 1
    38   16   17 1
    39   16   53 1
    40   16   54 1
    41   17   18 1
    42   17   55 1
    43   17   56 1
    44   18   19 1
    45   19   20 1
    46   19   27 1
    47   19   57 1
    48   20   25 ar
    49   20   21 ar
    50   21   22 ar
    51   21   58 1
    52   22   23 ar
    53   22   59 1
    54   23   24 ar
    55   23   26 1
    56   24   25 ar
    57   24   60 1
    58   25   61 1
    59   27   32 ar
    60   27   28 ar
    61   28   29 ar
    62   28   62 1
    63   29   30 ar
    64   29   63 1
    65   30   31 ar
    66   30   33 1
    67   31   32 ar
    68   31   64 1
    69   32   65 1
@<TRIPOS>MOLECULE
ZINC03599025
   27    27     0     0     0
SMALL
USER_CHARGES
5-(2-aminopropyl)benzene-1,2,4-triol
@<TRIPOS>ATOM
      1 C1         -2.2343    1.0162   -1.0204 C.3       1 <0>        -0.1838
      2 C2         -0.7955    1.5269   -1.1198 C.3       1 <0>         0.0367
      3 H1         -0.3538    1.1885   -2.0571 H         1 <0>         0.1475
      4 C3         -0.7931    3.0563   -1.0777 C.3       1 <0>        -0.0918
      5 C4          0.6090    3.5627   -1.2986 C.ar      1 <0>        -0.1523
      6 C5          1.4124    3.8657   -0.2148 C.ar      1 <0>        -0.1328
      7 C6          2.7031    4.3259   -0.4154 C.ar      1 <0>         0.0838
      8 C7          3.1878    4.4942   -1.7091 C.ar      1 <0>         0.1187
      9 C8          2.3799    4.1956   -2.7937 C.ar      1 <0>        -0.1492
     10 C9          1.0897    3.7296   -2.5884 C.ar      1 <0>         0.1327
     11 O1          0.2960    3.4357   -3.6527 O.3       1 <0>        -0.4932
     12 O2          4.4532    4.9508   -1.9080 O.3       1 <0>        -0.4822
     13 O3          3.4952    4.6182    0.6517 O.3       1 <0>        -0.4844
     14 H2         -2.2360   -0.0734   -1.0504 H         1 <0>         0.0848
     15 H3         -2.6760    1.3546   -0.0831 H         1 <0>         0.0824
     16 H4         -2.8159    1.4036   -1.8569 H         1 <0>         0.1077
     17 H5         -1.4463    3.4423   -1.8603 H         1 <0>         0.1214
     18 H6         -1.1523    3.3936   -0.1055 H         1 <0>         0.0987
     19 H7          1.0344    3.7396    0.7890 H         1 <0>         0.1403
     20 H8          2.7540    4.3258   -3.7984 H         1 <0>         0.1499
     21 H9         -0.2346    4.1813   -3.9654 H         1 <0>         0.4031
     22 H10         4.5187    5.9135   -1.9704 H         1 <0>         0.4018
     23 H11         3.4236    5.5335    0.9556 H         1 <0>         0.3989
     24 H12         0.0021   -0.0041    0.0020 H         1 <0>         0.4391
     25 H13         0.9253    1.3792    0.0006 H         1 <0>         0.4348
     26 N1         -0.0252    1.0139    0.0269 N.4       1 <0>        -0.6475
     27 H14        -0.4761    1.3157    0.8986 H         1 <0>         0.4351
@<TRIPOS>BOND
     1    1    2 1
     2    1   14 1
     3    1   15 1
     4    1   16 1
     5    2    3 1
     6    2    4 1
     7    2   26 1
     8    4    5 1
     9    4   17 1
    10    4   18 1
    11    5   10 ar
    12    5    6 ar
    13    6    7 ar
    14    6   19 1
    15    7    8 ar
    16    7   13 1
    17    8    9 ar
    18    8   12 1
    19    9   10 ar
    20    9   20 1
    21   10   11 1
    22   11   21 1
    23   12   22 1
    24   13   23 1
    25   24   26 1
    26   25   26 1
    27   26   27 1
@<TRIPOS>MOLECULE
ZINC03599026
   27    27     0     0     0
SMALL
USER_CHARGES
5-(2-aminopropyl)benzene-1,2,4-triol
@<TRIPOS>ATOM
      1 C1         -3.0274   -1.8225    1.4723 C.3       1 <0>        -0.1851
      2 C2         -1.6530   -1.1507    1.4495 C.3       1 <0>         0.0383
      3 H1         -1.6779   -0.2514    2.0649 H         1 <0>         0.1413
      4 C3         -1.2932   -0.7742    0.0108 C.3       1 <0>        -0.0942
      5 C4          0.0021   -0.0041    0.0020 C.ar      1 <0>        -0.1415
      6 C5         -0.0167    1.3785    0.0096 C.ar      1 <0>        -0.1033
      7 C6          1.1725    2.0883    0.0021 C.ar      1 <0>         0.0932
      8 C7          2.3872    1.4093   -0.0128 C.ar      1 <0>         0.1155
      9 C8          2.4043    0.0244   -0.0204 C.ar      1 <0>        -0.1442
     10 C9          1.2111   -0.6828   -0.0132 C.ar      1 <0>         0.0896
     11 O1          1.2270   -2.0425   -0.0207 O.3       1 <0>        -0.5174
     12 O2          3.5559    2.1046   -0.0198 O.3       1 <0>        -0.4869
     13 O3          1.1532    3.4489    0.0092 O.3       1 <0>        -0.4859
     14 H2         -3.0025   -2.7218    0.8569 H         1 <0>         0.0831
     15 H3         -3.2837   -2.0907    2.4973 H         1 <0>         0.0848
     16 H4         -3.7751   -1.1337    1.0792 H         1 <0>         0.1067
     17 H5         -2.0858   -0.1571   -0.4123 H         1 <0>         0.1209
     18 H6         -1.1812   -1.6803   -0.5847 H         1 <0>         0.1003
     19 H7         -0.9595    1.9053    0.0170 H         1 <0>         0.1474
     20 H8          3.3459   -0.5044   -0.0323 H         1 <0>         0.1496
     21 H9          1.2231   -2.4310   -0.9062 H         1 <0>         0.4107
     22 H10         3.8858    2.3104   -0.9052 H         1 <0>         0.4070
     23 H11         1.1559    3.8377    0.8946 H         1 <0>         0.4032
     24 H12         0.2805   -1.6828    1.9152 H         1 <0>         0.4369
     25 H13        -0.8607   -2.3428    2.9291 H         1 <0>         0.4342
     26 N1         -0.6484   -2.0983    1.9633 N.4       1 <0>        -0.6413
     27 H14        -0.6642   -2.9504    1.3907 H         1 <0>         0.4371
@<TRIPOS>BOND
     1    1    2 1
     2    1   14 1
     3    1   15 1
     4    1   16 1
     5    2    3 1
     6    2    4 1
     7    2   26 1
     8    4    5 1
     9    4   17 1
    10    4   18 1
    11    5   10 ar
    12    5    6 ar
    13    6    7 ar
    14    6   19 1
    15    7    8 ar
    16    7   13 1
    17    8    9 ar
    18    8   12 1
    19    9   10 ar
    20    9   20 1
    21   10   11 1
    22   11   21 1
    23   12   22 1
    24   13   23 1
    25   24   26 1
    26   25   26 1
    27   26   27 1
@<TRIPOS>MOLECULE
ZINC29230271
   38    40     0     0     0
SMALL
USER_CHARGES
(4R)-4-(3,4-dichlorophenyl)-7-methoxy-2-methyl-3,4-dihydro-1H-isoquinoline
@<TRIPOS>ATOM
      1 C1         -5.4338    4.0156   -2.3377 C.3       1 <0>         0.0206
      2 N1         -4.7210    4.0335   -1.0533 N.3       1 <0>        -0.5355
      3 C2         -5.4598    3.2846   -0.0318 C.3       1 <0>         0.0890
      4 C3         -4.6729    3.2254    1.2512 C.ar      1 <0>        -0.0338
      5 C4         -5.3407    2.8893    2.4189 C.ar      1 <0>        -0.1511
      6 C5         -4.6562    2.8193    3.6210 C.ar      1 <0>         0.1317
      7 C6         -3.2952    3.0874    3.6550 C.ar      1 <0>        -0.2055
      8 C7         -2.6341    3.4229    2.4918 C.ar      1 <0>        -0.0689
      9 C8         -3.3209    3.4935    1.2886 C.ar      1 <0>        -0.1036
     10 C9         -2.5542    3.8673    0.0457 C.3       1 <0>         0.0031
     11 H1         -2.3665    4.9511    0.0577 H         1 <0>         0.1025
     12 C10        -3.3605    3.4912   -1.1977 C.3       1 <0>         0.0576
     13 C11        -1.2383    3.1330    0.0297 C.ar      1 <0>        -0.0580
     14 C12        -1.2187    1.7505    0.0173 C.ar      1 <0>        -0.0910
     15 C13        -0.0126    1.0758    0.0080 C.ar      1 <0>        -0.0955
     16 C14         1.1760    1.7838    0.0004 C.ar      1 <0>        -0.0334
     17 C15         1.1563    3.1681    0.0076 C.ar      1 <0>        -0.0287
     18 C16        -0.0519    3.8418    0.0222 C.ar      1 <0>        -0.0940
     19 Cl1         2.6468    4.0579   -0.0025 Cl        1 <0>        -0.0457
     20 Cl2         2.6913    0.9369   -0.0186 Cl        1 <0>        -0.0474
     21 O1         -5.3150    2.4889    4.7628 O.3       1 <0>        -0.3170
     22 C17        -4.5439    2.4364    5.9647 C.3       1 <0>         0.0236
     23 H2         -6.4455    4.4253   -2.2013 H         1 <0>         0.0739
     24 H3         -5.5036    2.9807   -2.7039 H         1 <0>         0.0294
     25 H4         -4.8860    4.6274   -3.0696 H         1 <0>         0.0745
     26 H5         -6.4223    3.7806    0.1620 H         1 <0>         0.0949
     27 H6         -5.6406    2.2596   -0.3877 H         1 <0>         0.0535
     28 H7         -6.4000    2.6807    2.3909 H         1 <0>         0.1315
     29 H8         -2.7553    3.0332    4.5888 H         1 <0>         0.1287
     30 H9         -1.5748    3.6318    2.5180 H         1 <0>         0.1234
     31 H10        -3.4106    2.3967   -1.2960 H         1 <0>         0.0454
     32 H11        -2.8887    3.9186   -2.0947 H         1 <0>         0.0857
     33 H12        -2.1464    1.1975    0.0187 H         1 <0>         0.1354
     34 H13         0.0021   -0.0041    0.0020 H         1 <0>         0.1431
     35 H14        -0.0680    4.9217    0.0274 H         1 <0>         0.1446
     36 H15        -5.1955    2.1594    6.8065 H         1 <0>         0.1030
     37 H16        -4.0964    3.4228    6.1566 H         1 <0>         0.0572
     38 H17        -3.7463    1.6867    5.8562 H         1 <0>         0.0567
@<TRIPOS>BOND
     1    1    2 1
     2    1   23 1
     3    1   24 1
     4    1   25 1
     5    2   12 1
     6    2    3 1
     7    3    4 1
     8    3   26 1
     9    3   27 1
    10    4    9 ar
    11    4    5 ar
    12    5    6 ar
    13    5   28 1
    14    6    7 ar
    15    6   21 1
    16    7    8 ar
    17    7   29 1
    18    8    9 ar
    19    8   30 1
    20    9   10 1
    21   10   11 1
    22   10   12 1
    23   10   13 1
    24   12   31 1
    25   12   32 1
    26   13   18 ar
    27   13   14 ar
    28   14   15 ar
    29   14   33 1
    30   15   16 ar
    31   15   34 1
    32   16   17 ar
    33   16   20 1
    34   17   18 ar
    35   17   19 1
    36   18   35 1
    37   21   22 1
    38   22   36 1
    39   22   37 1
    40   22   38 1
@<TRIPOS>MOLECULE
ZINC29230278
   38    40     0     0     0
SMALL
USER_CHARGES
(4S)-4-(3,4-dichlorophenyl)-7-methoxy-2-methyl-3,4-dihydro-1H-isoquinoline
@<TRIPOS>ATOM
      1 C1          4.0328    6.3165    2.4133 C.3       1 <0>         0.0205
      2 N1          3.6870    5.7100    1.1209 N.3       1 <0>        -0.5348
      3 C2          3.4062    6.7397    0.1155 C.3       1 <0>         0.0884
      4 C3          2.9582    6.1073   -1.1762 C.ar      1 <0>        -0.0337
      5 C4          3.0002    6.8708   -2.3329 C.ar      1 <0>        -0.1510
      6 C5          2.5896    6.3329   -3.5414 C.ar      1 <0>         0.1319
      7 C6          2.1355    5.0228   -3.5931 C.ar      1 <0>        -0.2055
      8 C7          2.0976    4.2651   -2.4411 C.ar      1 <0>        -0.0689
      9 C8          2.5097    4.8047   -1.2314 C.ar      1 <0>        -0.1049
     10 C9          2.4524    3.9355   -0.0012 C.3       1 <0>         0.0037
     11 H1          3.2954    3.2292   -0.0258 H         1 <0>         0.1039
     12 C10         2.5348    4.8045    1.2540 C.3       1 <0>         0.0566
     13 C11         1.1570    3.1656    0.0075 C.ar      1 <0>        -0.0589
     14 C12         1.1748    1.7831    0.0004 C.ar      1 <0>        -0.0972
     15 C13        -0.0126    1.0758    0.0080 C.ar      1 <0>        -0.0956
     16 C14        -1.2199    1.7512    0.0173 C.ar      1 <0>        -0.0339
     17 C15        -1.2378    3.1355    0.0298 C.ar      1 <0>        -0.0285
     18 C16        -0.0482    3.8419    0.0222 C.ar      1 <0>        -0.0873
     19 Cl1        -2.7519    3.9844    0.0488 Cl        1 <0>        -0.0469
     20 Cl2        -2.7117    0.8633    0.0195 Cl        1 <0>        -0.0475
     21 O1          2.6318    7.0854   -4.6723 O.3       1 <0>        -0.3169
     22 C17         2.1931    6.4637   -5.8819 C.3       1 <0>         0.0236
     23 H2          4.8953    6.9870    2.2846 H         1 <0>         0.0740
     24 H3          4.2879    5.5249    3.1332 H         1 <0>         0.0745
     25 H4          3.1741    6.8917    2.7898 H         1 <0>         0.0294
     26 H5          2.6101    7.4038    0.4832 H         1 <0>         0.0537
     27 H6          4.3169    7.3277   -0.0715 H         1 <0>         0.0950
     28 H7          3.3545    7.8902   -2.2912 H         1 <0>         0.1316
     29 H8          1.8124    4.5979   -4.5320 H         1 <0>         0.1287
     30 H9          1.7446    3.2452   -2.4812 H         1 <0>         0.1235
     31 H10         2.6684    4.1692    2.1420 H         1 <0>         0.0858
     32 H11         1.6139    5.3963    1.3617 H         1 <0>         0.0449
     33 H12         2.1171    1.2555   -0.0114 H         1 <0>         0.1415
     34 H13         0.0021   -0.0041    0.0020 H         1 <0>         0.1446
     35 H14        -0.0614    4.9218    0.0281 H         1 <0>         0.1389
     36 H15         2.2789    7.1785   -6.7136 H         1 <0>         0.1029
     37 H16         1.1440    6.1510   -5.7739 H         1 <0>         0.0567
     38 H17         2.8187    5.5830   -6.0893 H         1 <0>         0.0571
@<TRIPOS>BOND
     1    1    2 1
     2    1   23 1
     3    1   24 1
     4    1   25 1
     5    2   12 1
     6    2    3 1
     7    3    4 1
     8    3   26 1
     9    3   27 1
    10    4    9 ar
    11    4    5 ar
    12    5    6 ar
    13    5   28 1
    14    6    7 ar
    15    6   21 1
    16    7    8 ar
    17    7   29 1
    18    8    9 ar
    19    8   30 1
    20    9   10 1
    21   10   11 1
    22   10   12 1
    23   10   13 1
    24   12   31 1
    25   12   32 1
    26   13   18 ar
    27   13   14 ar
    28   14   15 ar
    29   14   33 1
    30   15   16 ar
    31   15   34 1
    32   16   17 ar
    33   16   20 1
    34   17   18 ar
    35   17   19 1
    36   18   35 1
    37   21   22 1
    38   22   36 1
    39   22   37 1
    40   22   38 1
@<TRIPOS>MOLECULE
ZINC01849595
   42    43     0     0     0
SMALL
USER_CHARGES

@<TRIPOS>ATOM
      1 C1         -0.3851    1.0108    0.3279 C.3       1 <0>        -0.0478
      2 N1         -0.2049   -0.4399    0.1821 N.4       1 <0>        -0.5077
      3 C2          0.5234   -0.7202   -1.0625 C.3       1 <0>        -0.0212
      4 C3          0.7110   -2.2310   -1.2143 C.3       1 <0>        -0.1666
      5 C4          1.4695   -2.5230   -2.5106 C.3       1 <0>         0.1354
      6 H1          2.4064   -1.9659   -2.5168 H         1 <0>         0.0955
      7 C5          1.7620   -3.9987   -2.6000 C.ar      1 <0>        -0.1114
      8 C6          0.8155   -4.8605   -3.1218 C.ar      1 <0>        -0.0876
      9 C7          1.0838   -6.2141   -3.2038 C.ar      1 <0>        -0.1189
     10 C8          2.2987   -6.7058   -2.7644 C.ar      1 <0>        -0.1029
     11 C9          3.2456   -5.8438   -2.2434 C.ar      1 <0>        -0.1177
     12 C10         2.9789   -4.4897   -2.1653 C.ar      1 <0>        -0.1060
     13 O1          0.6724   -2.1269   -3.6285 O.3       1 <0>        -0.2879
     14 C11         0.8839   -0.8791   -4.1264 C.ar      1 <0>         0.0843
     15 C12         1.8698   -0.0721   -3.5816 C.ar      1 <0>        -0.1932
     16 C13         2.0839    1.1958   -4.0892 C.ar      1 <0>        -0.1163
     17 C14         1.3157    1.6619   -5.1400 C.ar      1 <0>        -0.1059
     18 C15         0.3301    0.8620   -5.6877 C.ar      1 <0>        -0.1676
     19 C16         0.1146   -0.4122   -5.1877 C.ar      1 <0>         0.1069
     20 O2         -0.8505   -1.2026   -5.7294 O.3       1 <0>        -0.3059
     21 C17        -1.6011   -0.6574   -6.8163 C.3       1 <0>         0.0232
     22 H2          0.5902    1.4966    0.3602 H         1 <0>         0.1243
     23 H3         -0.9536    1.3933   -0.5198 H         1 <0>         0.1234
     24 H4         -0.9254    1.2188    1.2514 H         1 <0>         0.1282
     25 H5          0.3214   -0.7939    0.9668 H         1 <0>         0.4300
     26 H6         -0.0452   -0.3377   -1.9102 H         1 <0>         0.1354
     27 H7          1.4986   -0.2344   -1.0301 H         1 <0>         0.1346
     28 H8          1.2796   -2.6136   -0.3666 H         1 <0>         0.1068
     29 H9         -0.2642   -2.7169   -1.2467 H         1 <0>         0.1033
     30 H10        -0.1337   -4.4764   -3.4651 H         1 <0>         0.1291
     31 H11         0.3441   -6.8875   -3.6108 H         1 <0>         0.1286
     32 H12         2.5081   -7.7634   -2.8278 H         1 <0>         0.1288
     33 H13         4.1946   -6.2280   -1.8997 H         1 <0>         0.1295
     34 H14         3.7201   -3.8157   -1.7617 H         1 <0>         0.1233
     35 H15         2.4708   -0.4335   -2.7603 H         1 <0>         0.1348
     36 H16         2.8526    1.8238   -3.6638 H         1 <0>         0.1312
     37 H17         1.4857    2.6531   -5.5335 H         1 <0>         0.1331
     38 H18        -0.2688    1.2286   -6.5082 H         1 <0>         0.1406
     39 H19        -2.1136    0.2464   -6.4868 H         1 <0>         0.0574
     40 H20        -0.9269   -0.4140   -7.6375 H         1 <0>         0.0598
     41 H21        -2.3354   -1.3889   -7.1537 H         1 <0>         0.1064
     42 H22        -1.1076   -0.8896    0.1521 H         1 <0>         0.4312
@<TRIPOS>BOND
     1    1    2 1
     2    1   22 1
     3    1   23 1
     4    1   24 1
     5    2    3 1
     6    2   25 1
     7    2   42 1
     8    3    4 1
     9    3   26 1
    10    3   27 1
    11    4    5 1
    12    4   28 1
    13    4   29 1
    14    5    6 1
    15    5    7 1
    16    5   13 1
    17    7   12 ar
    18    7    8 ar
    19    8    9 ar
    20    8   30 1
    21    9   10 ar
    22    9   31 1
    23   10   11 ar
    24   10   32 1
    25   11   12 ar
    26   11   33 1
    27   12   34 1
    28   13   14 1
    29   14   19 ar
    30   14   15 ar
    31   15   16 ar
    32   15   35 1
    33   16   17 ar
    34   16   36 1
    35   17   18 ar
    36   17   37 1
    37   18   19 ar
    38   18   38 1
    39   19   20 1
    40   20   21 1
    41   21   39 1
    42   21   40 1
    43   21   41 1
@<TRIPOS>MOLECULE
ZINC01849597
   42    43     0     0     0
SMALL
USER_CHARGES

@<TRIPOS>ATOM
      1 C1         -0.0166    1.2593    0.2880 C.3       1 <0>        -0.0480
      2 N1          0.0148   -0.2051    0.1758 N.4       1 <0>        -0.5077
      3 C2          0.6916   -0.5864   -1.0709 C.3       1 <0>        -0.0209
      4 C3          0.7243   -2.1116   -1.1877 C.3       1 <0>        -0.1650
      5 C4          1.4292   -2.5087   -2.4862 C.3       1 <0>         0.1348
      6 H1          0.9416   -2.0186   -3.3289 H         1 <0>         0.0956
      7 C5          1.3536   -4.0035   -2.6620 C.ar      1 <0>        -0.1128
      8 C6          2.2248   -4.8255   -1.9720 C.ar      1 <0>        -0.0876
      9 C7          2.1554   -6.1967   -2.1332 C.ar      1 <0>        -0.1192
     10 C8          1.2146   -6.7458   -2.9842 C.ar      1 <0>        -0.1026
     11 C9          0.3428   -5.9238   -3.6736 C.ar      1 <0>        -0.1177
     12 C10         0.4094   -4.5529   -3.5090 C.ar      1 <0>        -0.1052
     13 O1          2.7987   -2.1046   -2.4276 O.3       1 <0>        -0.2886
     14 C11         3.1292   -0.9490   -3.0637 C.ar      1 <0>         0.0853
     15 C12         2.1401   -0.1600   -3.6287 C.ar      1 <0>        -0.1927
     16 C13         2.4778    1.0147   -4.2746 C.ar      1 <0>        -0.1164
     17 C14         3.8014    1.4050   -4.3588 C.ar      1 <0>        -0.1056
     18 C15         4.7931    0.6223   -3.7976 C.ar      1 <0>        -0.1673
     19 C16         4.4609   -0.5532   -3.1435 C.ar      1 <0>         0.1078
     20 O2          5.4347   -1.3213   -2.5856 O.3       1 <0>        -0.3058
     21 C17         6.7793   -0.8529   -2.7064 C.3       1 <0>         0.0232
     22 H2          1.0029    1.6450    0.2954 H         1 <0>         0.1237
     23 H3         -0.5570    1.6772   -0.5614 H         1 <0>         0.1242
     24 H4         -0.5188    1.5422    1.2131 H         1 <0>         0.1283
     25 H5          0.5150   -0.5920    0.9621 H         1 <0>         0.4314
     26 H6          0.1512   -0.1684   -1.9202 H         1 <0>         0.1340
     27 H7          1.7111   -0.2007   -1.0635 H         1 <0>         0.1361
     28 H8          1.2647   -2.5295   -0.3384 H         1 <0>         0.1034
     29 H9         -0.2952   -2.4973   -1.1951 H         1 <0>         0.1069
     30 H10         2.9598   -4.3965   -1.3071 H         1 <0>         0.1276
     31 H11         2.8365   -6.8389   -1.5946 H         1 <0>         0.1285
     32 H12         1.1609   -7.8170   -3.1107 H         1 <0>         0.1288
     33 H13        -0.3920   -6.3528   -4.3387 H         1 <0>         0.1295
     34 H14        -0.2742   -3.9109   -4.0448 H         1 <0>         0.1234
     35 H15         1.1055   -0.4630   -3.5649 H         1 <0>         0.1328
     36 H16         1.7060    1.6287   -4.7146 H         1 <0>         0.1308
     37 H17         4.0613    2.3232   -4.8645 H         1 <0>         0.1330
     38 H18         5.8264    0.9292   -3.8652 H         1 <0>         0.1405
     39 H19         7.0413   -0.7683   -3.7610 H         1 <0>         0.0595
     40 H20         6.8680    0.1237   -2.2304 H         1 <0>         0.0577
     41 H21         7.4544   -1.5569   -2.2197 H         1 <0>         0.1062
     42 H22        -0.9289   -0.5622    0.1690 H         1 <0>         0.4301
@<TRIPOS>BOND
     1    1    2 1
     2    1   22 1
     3    1   23 1
     4    1   24 1
     5    2    3 1
     6    2   25 1
     7    2   42 1
     8    3    4 1
     9    3   26 1
    10    3   27 1
    11    4    5 1
    12    4   28 1
    13    4   29 1
    14    5    6 1
    15    5    7 1
    16    5   13 1
    17    7   12 ar
    18    7    8 ar
    19    8    9 ar
    20    8   30 1
    21    9   10 ar
    22    9   31 1
    23   10   11 ar
    24   10   32 1
    25   11   12 ar
    26   11   33 1
    27   12   34 1
    28   13   14 1
    29   14   19 ar
    30   14   15 ar
    31   15   16 ar
    32   15   35 1
    33   16   17 ar
    34   16   36 1
    35   17   18 ar
    36   17   37 1
    37   18   19 ar
    38   18   38 1
    39   19   20 1
    40   20   21 1
    41   21   39 1
    42   21   40 1
    43   21   41 1
@<TRIPOS>MOLECULE
ZINC03872907
   35    37     0     0     0
SMALL
USER_CHARGES
3-(3,4-dichlorophenyl)-N-methyl-indan-1-amine
@<TRIPOS>ATOM
      1 C1          1.8113    6.3768   -0.3145 C.3       1 <0>        -0.0482
      2 C2         -0.3439    5.3289    0.0315 C.3       1 <0>         0.0831
      3 H1         -0.2032    5.7353    1.0331 H         1 <0>         0.1537
      4 C3         -1.8220    5.4545   -0.3947 C.3       1 <0>        -0.1332
      5 C4         -2.4100    4.0967    0.0446 C.3       1 <0>        -0.0043
      6 H2         -2.8250    4.1716    1.0497 H         1 <0>         0.1169
      7 C5         -1.2410    3.1352    0.0293 C.ar      1 <0>        -0.0576
      8 C6         -0.0536    3.8434    0.0218 C.ar      1 <0>        -0.1646
      9 C7          1.1533    3.1650    0.0076 C.ar      1 <0>        -0.0961
     10 C8          1.1744    1.7837    0.0004 C.ar      1 <0>        -0.1074
     11 C9         -0.0126    1.0758    0.0080 C.ar      1 <0>        -0.0822
     12 C10        -1.2178    1.7509    0.0173 C.ar      1 <0>        -0.0906
     13 C11        -3.4715    3.6479   -0.9264 C.ar      1 <0>        -0.0777
     14 C12        -3.1518    3.4501   -2.2569 C.ar      1 <0>        -0.0969
     15 C13        -4.1231    3.0331   -3.1473 C.ar      1 <0>        -0.0937
     16 C14        -5.4187    2.8241   -2.7096 C.ar      1 <0>        -0.0266
     17 C15        -5.7402    3.0276   -1.3785 C.ar      1 <0>        -0.0278
     18 C16        -4.7654    3.4396   -0.4875 C.ar      1 <0>        -0.0882
     19 Cl1        -7.3654    2.7653   -0.8276 Cl        1 <0>        -0.0316
     20 Cl2        -6.6407    2.3066   -3.8289 Cl        1 <0>        -0.0322
     21 H3          2.4345    6.8903   -1.0467 H         1 <0>         0.1277
     22 H4          1.6393    7.0320    0.5394 H         1 <0>         0.1255
     23 H5          2.3153    5.4697    0.0192 H         1 <0>         0.1212
     24 H6         -2.3085    6.2758    0.1315 H         1 <0>         0.1156
     25 H7         -1.9044    5.5849   -1.4737 H         1 <0>         0.1010
     26 H8          2.0813    3.7175    0.0016 H         1 <0>         0.1254
     27 H9          2.1175    1.2576   -0.0114 H         1 <0>         0.1387
     28 H10         0.0021   -0.0041    0.0020 H         1 <0>         0.1393
     29 H11        -2.1450    1.1970    0.0187 H         1 <0>         0.1333
     30 H12        -2.1415    3.6177   -2.5998 H         1 <0>         0.1313
     31 H13        -3.8717    2.8748   -4.1856 H         1 <0>         0.1467
     32 H14        -5.0155    3.5989    0.5510 H         1 <0>         0.1461
     33 N1          0.5214    6.0264   -0.9384 N.4       1 <0>        -0.5172
     34 H15         0.6905    5.4127   -1.7440 H         1 <0>         0.4347
     35 H16         0.0537    6.8843   -1.2539 H         1 <0>         0.4357
@<TRIPOS>BOND
     1    1   21 1
     2    1   22 1
     3    1   23 1
     4    1   33 1
     5    2    3 1
     6    2    8 1
     7    2    4 1
     8    2   33 1
     9    4    5 1
    10    4   24 1
    11    4   25 1
    12    5    6 1
    13    5    7 1
    14    5   13 1
    15    7   12 ar
    16    7    8 ar
    17    8    9 ar
    18    9   10 ar
    19    9   26 1
    20   10   11 ar
    21   10   27 1
    22   11   12 ar
    23   11   28 1
    24   12   29 1
    25   13   18 ar
    26   13   14 ar
    27   14   15 ar
    28   14   30 1
    29   15   16 ar
    30   15   31 1
    31   16   17 ar
    32   16   20 1
    33   17   18 ar
    34   17   19 1
    35   18   32 1
    36   33   34 1
    37   33   35 1
