@<TRIPOS>MOLECULE
ZINC19364242
   33    32     0     0     0
SMALL
USER_CHARGES

@<TRIPOS>ATOM
      1 C1          0.6238    0.2932    0.0773 C.3       1 <0>         0.0185
      2 C2          0.3983   -1.0938   -0.5278 C.3       1 <0>        -0.0015
      3 N1         -1.0277   -1.2680   -0.8350 N.4       1 <0>        -0.3317
      4 C3         -1.4115   -0.3499   -1.9156 C.3       1 <0>        -0.0837
      5 C4         -2.8978   -0.4402   -2.1472 C.2       1 <0>         0.4952
      6 O1         -3.5747   -1.1990   -1.4745 O.co2     1 <0>        -0.6762
      7 O2         -3.4235    0.2456   -3.0074 O.co2     1 <0>        -0.6709
      8 C5         -1.2714   -2.6530   -1.2595 C.3       1 <0>        -0.0786
      9 C6         -1.0325   -3.5837   -0.0986 C.2       1 <0>         0.4977
     10 O3         -0.8039   -3.1297    1.0096 O.co2     1 <0>        -0.6724
     11 O4         -1.0678   -4.7907   -0.2675 O.co2     1 <0>        -0.6809
     12 N2          2.0238    0.4196    0.5040 N.3       1 <0>        -0.4817
     13 C7          2.9309    0.3906   -0.6511 C.3       1 <0>        -0.0099
     14 C8          2.5818    1.5145   -1.5923 C.2       1 <0>         0.4682
     15 O5          1.7234    2.3236   -1.2838 O.co2     1 <0>        -0.6908
     16 O6          3.1577    1.6148   -2.6622 O.co2     1 <0>        -0.7188
     17 C9          2.2237    1.6380    1.2999 C.3       1 <0>        -0.0115
     18 C10         3.5246    1.5377    2.0539 C.2       1 <0>         0.5002
     19 O7          4.1798    0.5107    2.0052 O.co2     1 <0>        -0.6867
     20 O8          3.9219    2.4836    2.7126 O.co2     1 <0>        -0.7303
     21 H1          0.4012    1.0559   -0.6690 H         1 <0>         0.0862
     22 H2         -0.0317    0.4250    0.9382 H         1 <0>         0.0627
     23 H3          0.9816   -1.1899   -1.4436 H         1 <0>         0.0969
     24 H4          0.7123   -1.8565    0.1847 H         1 <0>         0.1393
     25 H5         -1.1486    0.6703   -1.6361 H         1 <0>         0.1258
     26 H6         -0.8841   -0.6236   -2.8294 H         1 <0>         0.1107
     27 H7         -2.3024   -2.7529   -1.5991 H         1 <0>         0.1438
     28 H8         -0.5941   -2.9077   -2.0747 H         1 <0>         0.0987
     29 H9          3.9589    0.5093   -0.3089 H         1 <0>         0.0867
     30 H10         2.8284   -0.5627   -1.1697 H         1 <0>         0.0552
     31 H11         2.2532    2.5036    0.6380 H         1 <0>         0.0701
     32 H12         1.4016    1.7491    2.0069 H         1 <0>         0.0499
     33 H13        -1.5760   -1.0670   -0.0122 H         1 <0>         0.4197
@<TRIPOS>BOND
     1    1    2 1
     2    1   12 1
     3    1   21 1
     4    1   22 1
     5    2    3 1
     6    2   23 1
     7    2   24 1
     8    3    4 1
     9    3    8 1
    10    3   33 1
    11    4    5 1
    12    4   25 1
    13    4   26 1
    14    5    6 2
    15    5    7 1
    16    8    9 1
    17    8   27 1
    18    8   28 1
    19    9   10 2
    20    9   11 1
    21   12   13 1
    22   12   17 1
    23   13   14 1
    24   13   29 1
    25   13   30 1
    26   14   15 2
    27   14   16 1
    28   17   18 1
    29   17   31 1
    30   17   32 1
    31   18   19 2
    32   18   20 1
@<TRIPOS>MOLECULE
ZINC19364242
   34    33     0     0     0
SMALL
USER_CHARGES

@<TRIPOS>ATOM
      1 C1         -0.5471    1.6294   -0.8421 C.3       1 <0>        -0.0294
      2 C2         -0.4827    0.1009   -0.8583 C.3       1 <0>        -0.0497
      3 N1         -1.8452   -0.4461   -0.9075 N.4       1 <0>        -0.3244
      4 C3         -2.4760   -0.0752   -2.1813 C.3       1 <0>        -0.0924
      5 C4         -1.6325   -0.5776   -3.3246 C.2       1 <0>         0.4962
      6 O1         -0.6609   -1.2799   -3.1027 O.co2     1 <0>        -0.6699
      7 O2         -1.9218   -0.2819   -4.4715 O.co2     1 <0>        -0.6521
      8 C5         -1.7896   -1.9098   -0.7966 C.3       1 <0>        -0.0953
      9 C6         -3.1884   -2.4583   -0.6797 C.2       1 <0>         0.4957
     10 O3         -4.1438   -1.7012   -0.7019 O.co2     1 <0>        -0.6841
     11 O4         -3.3646   -3.6590   -0.5629 O.co2     1 <0>        -0.6615
     12 N2          0.8043    2.1745   -0.6559 N.4       1 <0>        -0.3270
     13 C7          1.6301    1.8464   -1.8257 C.3       1 <0>        -0.0920
     14 C8          3.0473    2.2974   -1.5826 C.2       1 <0>         0.4928
     15 O5          3.3421    2.8417   -0.5322 O.co2     1 <0>        -0.6696
     16 O6          3.8991    2.1180   -2.4362 O.co2     1 <0>        -0.6557
     17 C9          0.7273    3.6336   -0.5046 C.3       1 <0>        -0.0833
     18 C10         0.0231    3.9685    0.7850 C.2       1 <0>         0.4971
     19 O7         -0.2705    3.0808    1.5675 O.co2     1 <0>        -0.6857
     20 O8         -0.2529    5.1271    1.0458 O.co2     1 <0>        -0.6603
     21 H1         -0.9555    1.9860   -1.7877 H         1 <0>         0.1231
     22 H2         -1.1872    1.9575   -0.0231 H         1 <0>         0.1481
     23 H3          0.0736   -0.2301   -1.7353 H         1 <0>         0.1764
     24 H4          0.0178   -0.2513    0.0437 H         1 <0>         0.1229
     25 H5         -3.4688   -0.5215   -2.2387 H         1 <0>         0.1545
     26 H6         -2.5614    1.0098   -2.2422 H         1 <0>         0.1084
     27 H7         -1.3101   -2.3235   -1.6837 H         1 <0>         0.1671
     28 H8         -1.2161   -2.1855    0.0884 H         1 <0>         0.1083
     29 H9          1.6149    0.7690   -1.9905 H         1 <0>         0.1249
     30 H10         1.2330    2.3541   -2.7047 H         1 <0>         0.1200
     31 H11         1.7341    4.0508   -0.4878 H         1 <0>         0.1558
     32 H12         0.1725    4.0569   -1.3420 H         1 <0>         0.1072
     33 H13        -2.3860   -0.0711   -0.1427 H         1 <0>         0.4080
     34 H14         1.2183    1.7720    0.1716 H         1 <0>         0.4258
@<TRIPOS>BOND
     1    1    2 1
     2    1   12 1
     3    1   21 1
     4    1   22 1
     5    2    3 1
     6    2   23 1
     7    2   24 1
     8    3    4 1
     9    3    8 1
    10    3   33 1
    11    4    5 1
    12    4   25 1
    13    4   26 1
    14    5    6 2
    15    5    7 1
    16    8    9 1
    17    8   27 1
    18    8   28 1
    19    9   10 2
    20    9   11 1
    21   12   13 1
    22   12   17 1
    23   12   34 1
    24   13   14 1
    25   13   29 1
    26   13   30 1
    27   14   15 2
    28   14   16 1
    29   17   18 1
    30   17   31 1
    31   17   32 1
    32   18   19 2
    33   18   20 1
