@<TRIPOS>MOLECULE
ZINC12358651
   49    49     0     0     0
SMALL
USER_CHARGES

@<TRIPOS>ATOM
      1 C1         -2.0286   -1.1701   -2.0302 C.3       1 <0>        -0.1228
      2 C2         -0.9130   -0.9655   -1.0380 C.2       1 <0>        -0.1195
      3 C3         -1.0509   -0.0121   -0.1319 C.2       1 <0>        -0.0846
      4 C4         -0.0157    0.3046    0.9079 C.3       1 <0>        -0.0189
      5 C5          0.9697   -0.8582    1.0413 C.3       1 <0>        -0.1095
      6 C6          1.4613   -1.2436   -0.3593 C.3       1 <0>        -0.1215
      7 C7          0.2895   -1.8593   -1.1300 C.3       1 <0>        -0.0797
      8 C8         -0.7043    0.5427    2.2533 C.3       1 <0>        -0.1380
      9 C9          0.7436    1.5685    0.4993 C.3       1 <0>        -0.1378
     10 C10        -2.2434    0.7543   -0.1436 C.2       1 <0>        -0.1259
     11 C11        -3.4484    0.1381   -0.0202 C.2       1 <0>        -0.0971
     12 C12        -4.6247    0.9039    0.0582 C.2       1 <0>        -0.1171
     13 C13        -5.8350    0.2850    0.1820 C.2       1 <0>        -0.0909
     14 C14        -7.0080    1.0486    0.2602 C.2       1 <0>        -0.1590
     15 C15        -8.2286    0.4243    0.3851 C.2       1 <0>        -0.0727
     16 C16        -9.4006    1.1873    0.4632 C.2       1 <0>        -0.0846
     17 C17       -10.6211    0.5631    0.5882 C.2       1 <0>        -0.1309
     18 C18       -11.8049    1.3147    0.5138 C.2       1 <0>         0.4385
     19 O1        -11.7538    2.6103    0.2004 O.co2     1 <0>        -0.6898
     20 O2        -12.9805    0.7331    0.7567 O.co2     1 <0>        -0.7140
     21 C19        -9.3254    2.6915    0.4105 C.3       1 <0>        -0.1010
     22 C20        -4.5496    2.4081    0.0054 C.3       1 <0>        -0.1197
     23 H1         -1.7305   -1.9205   -2.7624 H         1 <0>         0.0534
     24 H2         -2.9229   -1.5082   -1.5068 H         1 <0>         0.0707
     25 H3         -2.2392   -0.2295   -2.5391 H         1 <0>         0.0657
     26 H4          1.8167   -0.5519    1.6552 H         1 <0>         0.0638
     27 H5          0.4699   -1.7107    1.5013 H         1 <0>         0.0637
     28 H6          1.8197   -0.3550   -0.8789 H         1 <0>         0.0667
     29 H7          2.2672   -1.9728   -0.2767 H         1 <0>         0.0625
     30 H8          0.0477   -2.8349   -0.7083 H         1 <0>         0.0717
     31 H9          0.5710   -1.9797   -2.1761 H         1 <0>         0.0688
     32 H10        -1.1790   -0.3801    2.5868 H         1 <0>         0.0541
     33 H11         0.0353    0.8575    2.9894 H         1 <0>         0.0532
     34 H12        -1.4600    1.3203    2.1420 H         1 <0>         0.0599
     35 H13         0.0450    2.4010    0.4154 H         1 <0>         0.0553
     36 H14         1.4959    1.8002    1.2533 H         1 <0>         0.0549
     37 H15         1.2309    1.4048   -0.4619 H         1 <0>         0.0560
     38 H16        -2.1943    1.8279   -0.2505 H         1 <0>         0.1163
     39 H17        -3.5023   -0.9399    0.0176 H         1 <0>         0.1126
     40 H18        -5.8889   -0.7930    0.2198 H         1 <0>         0.1099
     41 H19        -6.9541    2.1266    0.2224 H         1 <0>         0.1254
     42 H20        -8.2825   -0.6536    0.4229 H         1 <0>         0.1124
     43 H21       -10.6682   -0.5046    0.7433 H         1 <0>         0.1098
     44 H22        -9.4930    3.0280   -0.6126 H         1 <0>         0.0660
     45 H23       -10.0886    3.1165    1.0624 H         1 <0>         0.0952
     46 H24        -8.3402    3.0179    0.7436 H         1 <0>         0.0335
     47 H25        -4.6201    2.7393   -1.0307 H         1 <0>         0.0655
     48 H26        -5.3726    2.8334    0.5797 H         1 <0>         0.0686
     49 H27        -3.6015    2.7395    0.4291 H         1 <0>         0.0613
@<TRIPOS>BOND
     1    1    2 1
     2    1   23 1
     3    1   24 1
     4    1   25 1
     5    2    7 1
     6    2    3 2
     7    3    4 1
     8    3   10 1
     9    4    5 1
    10    4    8 1
    11    4    9 1
    12    5    6 1
    13    5   26 1
    14    5   27 1
    15    6    7 1
    16    6   28 1
    17    6   29 1
    18    7   30 1
    19    7   31 1
    20    8   32 1
    21    8   33 1
    22    8   34 1
    23    9   35 1
    24    9   36 1
    25    9   37 1
    26   10   11 2
    27   10   38 1
    28   11   12 1
    29   11   39 1
    30   12   13 2
    31   12   22 1
    32   13   14 1
    33   13   40 1
    34   14   15 2
    35   14   41 1
    36   15   16 1
    37   15   42 1
    38   16   17 2
    39   16   21 1
    40   17   18 1
    41   17   43 1
    42   18   19 2
    43   18   20 1
    44   21   44 1
    45   21   45 1
    46   21   46 1
    47   22   47 1
    48   22   48 1
    49   22   49 1
