@<TRIPOS>MOLECULE
ZINC02921281
   61    66     0     0     0
SMALL
USER_CHARGES
4-[4,5-bis(4-phenylphenyl)-1H-imidazol-2-yl]benzoic acid
@<TRIPOS>ATOM
      1 C1          9.2496   -0.0713   -0.0801 C.ar      1 <0>        -0.1203
      2 C2          8.3583   -0.6961    0.7736 C.ar      1 <0>        -0.1177
      3 C3          7.0326   -0.3134    0.7920 C.ar      1 <0>        -0.1103
      4 C4          6.5922    0.7051   -0.0521 C.ar      1 <0>        -0.0438
      5 C5          7.4939    1.3274   -0.9141 C.ar      1 <0>        -0.1111
      6 C6          8.8184    0.9399   -0.9199 C.ar      1 <0>        -0.1178
      7 C7          5.1690    1.1204   -0.0375 C.ar      1 <0>        -0.0433
      8 C8          4.7319    2.1401   -0.8838 C.ar      1 <0>        -0.1059
      9 C9          3.4111    2.5266   -0.8718 C.ar      1 <0>        -0.1078
     10 C10         2.5071    1.8970   -0.0105 C.ar      1 <0>        -0.0097
     11 C11         2.9479    0.8793    0.8411 C.ar      1 <0>        -0.0846
     12 C12         4.2683    0.4916    0.8228 C.ar      1 <0>        -0.1049
     13 C13         1.0917    2.3101    0.0040 C.2       1 <0>         0.0223
     14 C14        -0.0180    1.4763    0.0102 C.2       1 <0>         0.0636
     15 N1         -1.1116    2.2524    0.0189 N.2       1 <0>        -0.4626
     16 C15        -0.7539    3.5167    0.0268 C.2       1 <0>         0.2854
     17 N2          0.6097    3.5970    0.0147 N.pl3     1 <0>        -0.5564
     18 H1          1.1550    4.4352    0.0138 H         1 <0>         0.4288
     19 C16        -1.6789    4.6680    0.0409 C.ar      1 <0>        -0.0405
     20 C17        -1.1730    5.9708    0.0483 C.ar      1 <0>        -0.1225
     21 C18        -2.0315    7.0397    0.0556 C.ar      1 <0>        -0.0773
     22 C19        -3.4132    6.8263    0.0672 C.ar      1 <0>        -0.0941
     23 C20        -3.9191    5.5229    0.0655 C.ar      1 <0>        -0.0875
     24 C21        -3.0601    4.4544    0.0525 C.ar      1 <0>        -0.0864
     25 C22        -4.3375    7.9766    0.0817 C.2       1 <0>         0.4860
     26 O1         -5.5382    7.7910    0.0923 O.co2     1 <0>        -0.6266
     27 C23         0.0021   -0.0041    0.0020 C.ar      1 <0>         0.0066
     28 C24         0.9915   -0.6850   -0.7092 C.ar      1 <0>        -0.0988
     29 C25         1.0125   -2.0618   -0.7125 C.ar      1 <0>        -0.1081
     30 C26         0.0391   -2.7761   -0.0140 C.ar      1 <0>        -0.0507
     31 C27        -0.9529   -2.0962    0.6925 C.ar      1 <0>        -0.1091
     32 C28        -0.9718   -0.7194    0.7008 C.ar      1 <0>        -0.0887
     33 C29         0.0592   -4.2589   -0.0222 C.ar      1 <0>        -0.0388
     34 C30        -0.9086   -4.9756    0.6799 C.ar      1 <0>        -0.1123
     35 C31        -0.8880   -6.3554    0.6643 C.ar      1 <0>        -0.1176
     36 C32         0.0967   -7.0272   -0.0375 C.ar      1 <0>        -0.1235
     37 C33         1.0630   -6.3212   -0.7314 C.ar      1 <0>        -0.1183
     38 C34         1.0493   -4.9413   -0.7273 C.ar      1 <0>        -0.1128
     39 H2         10.2862   -0.3744   -0.0913 H         1 <0>         0.1218
     40 H3          8.7005   -1.4851    1.4268 H         1 <0>         0.1238
     41 H4          6.3375   -0.8021    1.4586 H         1 <0>         0.1261
     42 H5          7.1574    2.1139   -1.5734 H         1 <0>         0.1255
     43 H6          9.5187    1.4241   -1.5843 H         1 <0>         0.1237
     44 H7          5.4304    2.6261   -1.5488 H         1 <0>         0.1281
     45 H8          3.0731    3.3158   -1.5269 H         1 <0>         0.1242
     46 H9          2.2518    0.3951    1.5100 H         1 <0>         0.1297
     47 H10         4.6082   -0.2973    1.4775 H         1 <0>         0.1291
     48 H11        -0.1056    6.1356    0.0438 H         1 <0>         0.1108
     49 H12        -1.6405    8.0465    0.0573 H         1 <0>         0.1362
     50 H13        -4.9863    5.3578    0.0749 H         1 <0>         0.1344
     51 H14        -3.4508    3.4475    0.0516 H         1 <0>         0.1319
     52 H15         1.7428   -0.1320   -1.2534 H         1 <0>         0.1245
     53 H16         1.7802   -2.5888   -1.2596 H         1 <0>         0.1247
     54 H17        -1.7066   -2.6498    1.2328 H         1 <0>         0.1262
     55 H18        -1.7397   -0.1930    1.2481 H         1 <0>         0.1310
     56 H19        -1.6752   -4.4520    1.2318 H         1 <0>         0.1262
     57 H20        -1.6397   -6.9117    1.2045 H         1 <0>         0.1229
     58 H21         0.1113   -8.1071   -0.0435 H         1 <0>         0.1206
     59 H22         1.8298   -6.8510   -1.2770 H         1 <0>         0.1223
     60 H23         1.8044   -4.3911   -1.2690 H         1 <0>         0.1249
     61 O2         -3.8499    9.2327    0.0834 O.co2     1 <0>        -0.7517
@<TRIPOS>BOND
     1    1    6 ar
     2    1    2 ar
     3    1   39 1
     4    2    3 ar
     5    2   40 1
     6    3    4 ar
     7    3   41 1
     8    4    5 ar
     9    4    7 1
    10    5    6 ar
    11    5   42 1
    12    6   43 1
    13    7   12 ar
    14    7    8 ar
    15    8    9 ar
    16    8   44 1
    17    9   10 ar
    18    9   45 1
    19   10   11 ar
    20   10   13 1
    21   11   12 ar
    22   11   46 1
    23   12   47 1
    24   13   17 1
    25   13   14 2
    26   14   15 1
    27   14   27 1
    28   15   16 2
    29   16   17 1
    30   16   19 1
    31   17   18 1
    32   19   24 ar
    33   19   20 ar
    34   20   21 ar
    35   20   48 1
    36   21   22 ar
    37   21   49 1
    38   22   23 ar
    39   22   25 1
    40   23   24 ar
    41   23   50 1
    42   24   51 1
    43   25   26 2
    44   25   61 1
    45   27   32 ar
    46   27   28 ar
    47   28   29 ar
    48   28   52 1
    49   29   30 ar
    50   29   53 1
    51   30   31 ar
    52   30   33 1
    53   31   32 ar
    54   31   54 1
    55   32   55 1
    56   33   38 ar
    57   33   34 ar
    58   34   35 ar
    59   34   56 1
    60   35   36 ar
    61   35   57 1
    62   36   37 ar
    63   36   58 1
    64   37   38 ar
    65   37   59 1
    66   38   60 1
@<TRIPOS>MOLECULE
ZINC02921281
   62    67     0     0     0
SMALL
USER_CHARGES
4-[4,5-bis(4-phenylphenyl)-1H-imidazol-2-yl]benzoic acid
@<TRIPOS>ATOM
      1 C1          9.2496   -0.0713   -0.0801 C.ar      1 <0>        -0.1068
      2 C2          8.3583   -0.6961    0.7736 C.ar      1 <0>        -0.1180
      3 C3          7.0326   -0.3134    0.7920 C.ar      1 <0>        -0.1024
      4 C4          6.5922    0.7051   -0.0521 C.ar      1 <0>        -0.0666
      5 C5          7.4939    1.3274   -0.9141 C.ar      1 <0>        -0.1026
      6 C6          8.8184    0.9399   -0.9199 C.ar      1 <0>        -0.1178
      7 C7          5.1690    1.1204   -0.0375 C.ar      1 <0>        -0.0031
      8 C8          4.7319    2.1401   -0.8838 C.ar      1 <0>        -0.1108
      9 C9          3.4111    2.5266   -0.8718 C.ar      1 <0>        -0.0844
     10 C10         2.5071    1.8970   -0.0105 C.ar      1 <0>        -0.0672
     11 C11         2.9479    0.8793    0.8411 C.ar      1 <0>        -0.0662
     12 C12         4.2683    0.4916    0.8228 C.ar      1 <0>        -0.1106
     13 C13         1.0917    2.3101    0.0040 C.2       1 <0>         0.1165
     14 C14        -0.0180    1.4763    0.0102 C.2       1 <0>         0.0902
     15 C15        -0.7539    3.5167    0.0268 C.cat     1 <0>         0.4087
     16 N1          0.6097    3.5970    0.0147 N.pl3     1 <0>        -0.5177
     17 H1          1.1550    4.4352    0.0138 H         1 <0>         0.4688
     18 C16        -1.6789    4.6680    0.0409 C.ar      1 <0>        -0.1172
     19 C17        -1.1730    5.9708    0.0483 C.ar      1 <0>        -0.0813
     20 C18        -2.0315    7.0397    0.0556 C.ar      1 <0>        -0.0744
     21 C19        -3.4132    6.8263    0.0672 C.ar      1 <0>        -0.0437
     22 C20        -3.9191    5.5229    0.0655 C.ar      1 <0>        -0.0828
     23 C21        -3.0601    4.4544    0.0525 C.ar      1 <0>        -0.0831
     24 C22        -4.3375    7.9766    0.0817 C.2       1 <0>         0.4754
     25 O1         -5.5382    7.7910    0.0923 O.co2     1 <0>        -0.6099
     26 C23         0.0021   -0.0041    0.0020 C.ar      1 <0>        -0.0603
     27 C24         0.9915   -0.6850   -0.7092 C.ar      1 <0>        -0.0708
     28 C25         1.0125   -2.0618   -0.7125 C.ar      1 <0>        -0.1081
     29 C26         0.0391   -2.7761   -0.0140 C.ar      1 <0>        -0.0063
     30 C27        -0.9529   -2.0962    0.6925 C.ar      1 <0>        -0.1083
     31 C28        -0.9718   -0.7194    0.7008 C.ar      1 <0>        -0.0909
     32 C29         0.0592   -4.2589   -0.0222 C.ar      1 <0>        -0.0656
     33 C30        -0.9086   -4.9756    0.6799 C.ar      1 <0>        -0.1031
     34 C31        -0.8880   -6.3554    0.6643 C.ar      1 <0>        -0.1177
     35 C32         0.0967   -7.0272   -0.0375 C.ar      1 <0>        -0.1073
     36 C33         1.0630   -6.3212   -0.7314 C.ar      1 <0>        -0.1179
     37 C34         1.0493   -4.9413   -0.7273 C.ar      1 <0>        -0.1029
     38 H2         10.2862   -0.3744   -0.0913 H         1 <0>         0.1268
     39 H3          8.7005   -1.4851    1.4268 H         1 <0>         0.1279
     40 H4          6.3375   -0.8021    1.4586 H         1 <0>         0.1268
     41 H5          7.1574    2.1139   -1.5734 H         1 <0>         0.1269
     42 H6          9.5187    1.4241   -1.5843 H         1 <0>         0.1281
     43 H7          5.4304    2.6261   -1.5488 H         1 <0>         0.1380
     44 H8          3.0731    3.3158   -1.5269 H         1 <0>         0.1305
     45 H9          2.2518    0.3951    1.5100 H         1 <0>         0.1343
     46 H10         4.6082   -0.2973    1.4775 H         1 <0>         0.1381
     47 H11        -0.1056    6.1356    0.0438 H         1 <0>         0.1256
     48 H12        -1.6405    8.0465    0.0573 H         1 <0>         0.1536
     49 H13        -4.9863    5.3578    0.0749 H         1 <0>         0.1502
     50 H14        -3.4508    3.4475    0.0516 H         1 <0>         0.1250
     51 H15         1.7428   -0.1320   -1.2534 H         1 <0>         0.1348
     52 H16         1.7802   -2.5888   -1.2596 H         1 <0>         0.1374
     53 H17        -1.7066   -2.6498    1.2328 H         1 <0>         0.1378
     54 H18        -1.7397   -0.1930    1.2481 H         1 <0>         0.1284
     55 H19        -1.6752   -4.4520    1.2318 H         1 <0>         0.1267
     56 H20        -1.6397   -6.9117    1.2045 H         1 <0>         0.1280
     57 H21         0.1113   -8.1071   -0.0435 H         1 <0>         0.1267
     58 H22         1.8298   -6.8510   -1.2770 H         1 <0>         0.1278
     59 H23         1.8044   -4.3911   -1.2690 H         1 <0>         0.1266
     60 O2         -3.8499    9.2327    0.0834 O.co2     1 <0>        -0.7304
     61 N2         -1.1122    2.2522    0.0189 N.pl3     1 <0>        -0.4845
     62 H24        -2.0805    1.9108    0.0193 H         1 <0>         0.4749
@<TRIPOS>BOND
     1    1    6 ar
     2    1    2 ar
     3    1   38 1
     4    2    3 ar
     5    2   39 1
     6    3    4 ar
     7    3   40 1
     8    4    5 ar
     9    4    7 1
    10    5    6 ar
    11    5   41 1
    12    6   42 1
    13    7   12 ar
    14    7    8 ar
    15    8    9 ar
    16    8   43 1
    17    9   10 ar
    18    9   44 1
    19   10   11 ar
    20   10   13 1
    21   11   12 ar
    22   11   45 1
    23   12   46 1
    24   13   16 1
    25   13   14 2
    26   14   26 1
    27   14   61 1
    28   15   16 1
    29   15   18 1
    30   15   61 2
    31   16   17 1
    32   18   23 ar
    33   18   19 ar
    34   19   20 ar
    35   19   47 1
    36   20   21 ar
    37   20   48 1
    38   21   22 ar
    39   21   24 1
    40   22   23 ar
    41   22   49 1
    42   23   50 1
    43   24   25 2
    44   24   60 1
    45   26   31 ar
    46   26   27 ar
    47   27   28 ar
    48   27   51 1
    49   28   29 ar
    50   28   52 1
    51   29   30 ar
    52   29   32 1
    53   30   31 ar
    54   30   53 1
    55   31   54 1
    56   32   37 ar
    57   32   33 ar
    58   33   34 ar
    59   33   55 1
    60   34   35 ar
    61   34   56 1
    62   35   36 ar
    63   35   57 1
    64   36   37 ar
    65   36   58 1
    66   37   59 1
    67   61   62 1
@<TRIPOS>MOLECULE
ZINC03978629
   51    51     0     0     0
SMALL
USER_CHARGES

@<TRIPOS>ATOM
      1 C1         -0.0184    1.5068    0.0103 C.3       1 <0>        -0.1022
      2 C2          1.4716    1.9202   -0.0017 C.3       1 <0>        -0.1232
      3 C3          2.1406    0.6709    0.6171 C.3       1 <0>        -0.0699
      4 H1          2.2669    0.8008    1.6919 H         1 <0>         0.0801
      5 C4          1.1795   -0.4600    0.3329 C.2       1 <0>        -0.1576
      6 C5          0.0021   -0.0041    0.0020 C.2       1 <0>        -0.1733
      7 C6          3.4921    0.4050   -0.0490 C.3       1 <0>        -0.1102
      8 C7          4.1906   -0.7567    0.6605 C.3       1 <0>        -0.1197
      9 C8          5.5421   -1.0226   -0.0056 C.3       1 <0>        -0.1205
     10 C9          6.2406   -2.1843    0.7039 C.3       1 <0>        -0.1199
     11 C10         7.5921   -2.4502    0.0378 C.3       1 <0>        -0.1205
     12 C11         8.2907   -3.6119    0.7473 C.3       1 <0>        -0.1199
     13 C12         9.6422   -3.8777    0.0812 C.3       1 <0>        -0.1205
     14 C13        10.3407   -5.0394    0.7908 C.3       1 <0>        -0.1192
     15 C14        11.6922   -5.3053    0.1247 C.3       1 <0>        -0.1193
     16 C15        12.3907   -6.4670    0.8342 C.3       1 <0>        -0.1206
     17 C16        13.7422   -6.7329    0.1681 C.3       1 <0>        -0.0935
     18 C17        14.4407   -7.8946    0.8776 C.3       1 <0>        -0.1840
     19 C18        15.7719   -8.1565    0.2215 C.2       1 <0>         0.4873
     20 O1         16.1288   -7.4769   -0.7257 O.co2     1 <0>        -0.7001
     21 O2         16.4919   -9.0479    0.6380 O.co2     1 <0>        -0.7101
     22 H2         -0.5074    1.8750    0.9123 H         1 <0>         0.0730
     23 H3         -0.5244    1.8846   -0.8781 H         1 <0>         0.0681
     24 H4          1.8228    2.0883   -1.0198 H         1 <0>         0.0714
     25 H5          1.6383    2.8009    0.6185 H         1 <0>         0.0709
     26 H6          1.4336   -1.5078    0.3951 H         1 <0>         0.1226
     27 H7         -0.8462   -0.6252   -0.2449 H         1 <0>         0.1214
     28 H8          3.3366    0.1498   -1.0973 H         1 <0>         0.0626
     29 H9          4.1128    1.2984    0.0192 H         1 <0>         0.0627
     30 H10         4.3461   -0.5015    1.7087 H         1 <0>         0.0600
     31 H11         3.5699   -1.6501    0.5923 H         1 <0>         0.0615
     32 H12         5.3866   -1.2778   -1.0538 H         1 <0>         0.0601
     33 H13         6.1628   -0.1292    0.0626 H         1 <0>         0.0601
     34 H14         6.3962   -1.9291    1.7521 H         1 <0>         0.0598
     35 H15         5.6199   -3.0777    0.6357 H         1 <0>         0.0596
     36 H16         7.4366   -2.7054   -1.0104 H         1 <0>         0.0600
     37 H17         8.2128   -1.5567    0.1060 H         1 <0>         0.0601
     38 H18         8.4462   -3.3567    1.7956 H         1 <0>         0.0594
     39 H19         7.6700   -4.5053    0.6791 H         1 <0>         0.0593
     40 H20         9.4866   -4.1329   -0.9670 H         1 <0>         0.0599
     41 H21        10.2629   -2.9843    0.1495 H         1 <0>         0.0599
     42 H22        10.4962   -4.7842    1.8390 H         1 <0>         0.0583
     43 H23         9.7200   -5.9328    0.7225 H         1 <0>         0.0582
     44 H24        11.5367   -5.5605   -0.9236 H         1 <0>         0.0593
     45 H25        12.3129   -4.4119    0.1929 H         1 <0>         0.0593
     46 H26        12.5462   -6.2118    1.8824 H         1 <0>         0.0536
     47 H27        11.7700   -7.3604    0.7660 H         1 <0>         0.0536
     48 H28        13.5867   -6.9881   -0.8801 H         1 <0>         0.0570
     49 H29        14.3629   -5.8395    0.2363 H         1 <0>         0.0570
     50 H30        14.5962   -7.6394    1.9258 H         1 <0>         0.0540
     51 H31        13.8200   -8.7880    0.8094 H         1 <0>         0.0540
@<TRIPOS>BOND
     1    1    6 1
     2    1    2 1
     3    1   22 1
     4    1   23 1
     5    2    3 1
     6    2   24 1
     7    2   25 1
     8    3    4 1
     9    3    5 1
    10    3    7 1
    11    5    6 2
    12    5   26 1
    13    6   27 1
    14    7    8 1
    15    7   28 1
    16    7   29 1
    17    8    9 1
    18    8   30 1
    19    8   31 1
    20    9   10 1
    21    9   32 1
    22    9   33 1
    23   10   11 1
    24   10   34 1
    25   10   35 1
    26   11   12 1
    27   11   36 1
    28   11   37 1
    29   12   13 1
    30   12   38 1
    31   12   39 1
    32   13   14 1
    33   13   40 1
    34   13   41 1
    35   14   15 1
    36   14   42 1
    37   14   43 1
    38   15   16 1
    39   15   44 1
    40   15   45 1
    41   16   17 1
    42   16   46 1
    43   16   47 1
    44   17   18 1
    45   17   48 1
    46   17   49 1
    47   18   19 1
    48   18   50 1
    49   18   51 1
    50   19   20 2
    51   19   21 1
@<TRIPOS>MOLECULE
ZINC03978630
   51    51     0     0     0
SMALL
USER_CHARGES

@<TRIPOS>ATOM
      1 C1         -0.0184    1.5068    0.0103 C.3       1 <0>        -0.1022
      2 C2          1.4716    1.9202   -0.0017 C.3       1 <0>        -0.1232
      3 C3          2.1286    0.6776   -0.6465 C.3       1 <0>        -0.0699
      4 H1          2.2343    0.8192   -1.7221 H         1 <0>         0.0801
      5 C4          1.1729   -0.4562   -0.3562 C.2       1 <0>        -0.1575
      6 C5          0.0021   -0.0041    0.0020 C.2       1 <0>        -0.1733
      7 C6          3.4925    0.4048   -0.0092 C.3       1 <0>        -0.1102
      8 C7          4.1772   -0.7492   -0.7444 C.3       1 <0>        -0.1197
      9 C8          5.5412   -1.0220   -0.1071 C.3       1 <0>        -0.1205
     10 C9          6.2259   -2.1760   -0.8422 C.3       1 <0>        -0.1199
     11 C10         7.5898   -2.4489   -0.2050 C.3       1 <0>        -0.1205
     12 C11         8.2745   -3.6028   -0.9401 C.3       1 <0>        -0.1198
     13 C12         9.6385   -3.8757   -0.3029 C.3       1 <0>        -0.1205
     14 C13        10.3232   -5.0296   -1.0380 C.3       1 <0>        -0.1192
     15 C14        11.6871   -5.3025   -0.4007 C.3       1 <0>        -0.1193
     16 C15        12.3719   -6.4564   -1.1359 C.3       1 <0>        -0.1206
     17 C16        13.7358   -6.7293   -0.4986 C.3       1 <0>        -0.0935
     18 C17        14.4205   -7.8832   -1.2338 C.3       1 <0>        -0.1840
     19 C18        15.7640   -8.1520   -0.6061 C.2       1 <0>         0.4873
     20 O1         16.1390   -7.4826    0.3414 O.co2     1 <0>        -0.7001
     21 O2         16.4758   -9.0388   -1.0458 O.co2     1 <0>        -0.7101
     22 H2         -0.5074    1.8750    0.9123 H         1 <0>         0.0681
     23 H3         -0.5244    1.8846   -0.8781 H         1 <0>         0.0730
     24 H4          1.6265    2.8075   -0.6154 H         1 <0>         0.0709
     25 H5          1.8422    2.0774    1.0112 H         1 <0>         0.0714
     26 H6          1.4255   -1.5033   -0.4350 H         1 <0>         0.1226
     27 H7         -0.8412   -0.6279    0.2591 H         1 <0>         0.1214
     28 H8          4.1119    1.2989   -0.0797 H         1 <0>         0.0627
     29 H9          3.3570    0.1383    1.0390 H         1 <0>         0.0626
     30 H10         3.5578   -1.6433   -0.6739 H         1 <0>         0.0615
     31 H11         4.3127   -0.4827   -1.7926 H         1 <0>         0.0600
     32 H12         6.1605   -0.1279   -0.1775 H         1 <0>         0.0602
     33 H13         5.4057   -1.2885    0.9411 H         1 <0>         0.0601
     34 H14         5.6065   -3.0701   -0.7718 H         1 <0>         0.0596
     35 H15         6.3614   -1.9095   -1.8905 H         1 <0>         0.0598
     36 H16         8.2092   -1.5547   -0.2754 H         1 <0>         0.0601
     37 H17         7.4543   -2.7153    0.8432 H         1 <0>         0.0600
     38 H18         7.6552   -4.4970   -0.8697 H         1 <0>         0.0593
     39 H19         8.4100   -3.3363   -1.9883 H         1 <0>         0.0594
     40 H20        10.2579   -2.9815   -0.3733 H         1 <0>         0.0599
     41 H21         9.5030   -4.1421    0.7454 H         1 <0>         0.0599
     42 H22         9.7038   -5.9238   -0.9676 H         1 <0>         0.0582
     43 H23        10.4587   -4.7632   -2.0862 H         1 <0>         0.0583
     44 H24        12.3065   -4.4083   -0.4712 H         1 <0>         0.0593
     45 H25        11.5517   -5.5689    0.6475 H         1 <0>         0.0593
     46 H26        11.7525   -7.3506   -1.0654 H         1 <0>         0.0536
     47 H27        12.5074   -6.1900   -2.1841 H         1 <0>         0.0536
     48 H28        14.3552   -5.8351   -0.5691 H         1 <0>         0.0570
     49 H29        13.6003   -6.9958    0.5496 H         1 <0>         0.0570
     50 H30        13.8012   -8.7774   -1.1633 H         1 <0>         0.0540
     51 H31        14.5560   -7.6168   -2.2820 H         1 <0>         0.0540
@<TRIPOS>BOND
     1    1    6 1
     2    1    2 1
     3    1   22 1
     4    1   23 1
     5    2    3 1
     6    2   24 1
     7    2   25 1
     8    3    4 1
     9    3    5 1
    10    3    7 1
    11    5    6 2
    12    5   26 1
    13    6   27 1
    14    7    8 1
    15    7   28 1
    16    7   29 1
    17    8    9 1
    18    8   30 1
    19    8   31 1
    20    9   10 1
    21    9   32 1
    22    9   33 1
    23   10   11 1
    24   10   34 1
    25   10   35 1
    26   11   12 1
    27   11   36 1
    28   11   37 1
    29   12   13 1
    30   12   38 1
    31   12   39 1
    32   13   14 1
    33   13   40 1
    34   13   41 1
    35   14   15 1
    36   14   42 1
    37   14   43 1
    38   15   16 1
    39   15   44 1
    40   15   45 1
    41   16   17 1
    42   16   46 1
    43   16   47 1
    44   17   18 1
    45   17   48 1
    46   17   49 1
    47   18   19 1
    48   18   50 1
    49   18   51 1
    50   19   20 2
    51   19   21 1
@<TRIPOS>MOLECULE
ZINC06483512
   33    36     0     0     0
SMALL
USER_CHARGES

@<TRIPOS>ATOM
      1 C1         -0.0173    1.4248    0.0099 C.3       1 <0>         0.0200
      2 O1          0.0021   -0.0041    0.0020 O.3       1 <0>        -0.2984
      3 C2          0.6053   -0.6066   -1.0548 C.ar      1 <0>         0.2142
      4 C3          1.1713    0.1703   -2.0597 C.ar      1 <0>        -0.2556
      5 C4          1.7874   -0.4334   -3.1392 C.ar      1 <0>         0.2259
      6 C5          1.8380   -1.8334   -3.2146 C.ar      1 <0>        -0.1865
      7 C6          1.2647   -2.6155   -2.1969 C.ar      1 <0>         0.2234
      8 C7          0.6561   -1.9901   -1.1191 C.ar      1 <0>        -0.1791
      9 O2          1.3108   -3.9644   -2.2647 O.3       1 <0>        -0.2599
     10 C8          1.8955   -4.6066   -3.2898 C.2       1 <0>         0.5536
     11 O3          1.9090   -5.8242   -3.3016 O.2       1 <0>        -0.4460
     12 C9          2.4936   -3.8984   -4.3523 C.2       1 <0>        -0.2849
     13 C10         2.4839   -2.5047   -4.3472 C.2       1 <0>         0.1929
     14 O4          3.1074   -2.0604   -5.4488 O.3       1 <0>        -0.1517
     15 C11         3.5480   -3.0833   -6.2154 C.ar      1 <0>         0.0589
     16 C12         3.1948   -4.2874   -5.5871 C.ar      1 <0>        -0.0563
     17 C13         3.5303   -5.5078   -6.1676 C.ar      1 <0>        -0.0803
     18 C14         4.2111   -5.5312   -7.3697 C.ar      1 <0>         0.0868
     19 C15         4.5603   -4.3357   -7.9972 C.ar      1 <0>         0.1134
     20 C16         4.2338   -3.1212   -7.4229 C.ar      1 <0>        -0.1090
     21 O5          5.2311   -4.3647   -9.1800 O.3       1 <0>        -0.4774
     22 O6          4.5413   -6.7209   -7.9412 O.3       1 <0>        -0.4794
     23 O7          2.3400    0.3237   -4.1211 O.3       1 <0>        -0.4800
     24 H1          1.0053    1.8021    0.0021 H         1 <0>         0.0641
     25 H2         -0.5445    1.7859   -0.8732 H         1 <0>         0.0648
     26 H3         -0.5275    1.7763    0.9067 H         1 <0>         0.1110
     27 H4          1.1290    1.2476   -1.9964 H         1 <0>         0.1547
     28 H5          0.2170   -2.5825   -0.3300 H         1 <0>         0.1646
     29 H6          3.2596   -6.4327   -5.6798 H         1 <0>         0.1512
     30 H7          4.5090   -2.2004   -7.9157 H         1 <0>         0.1514
     31 H8          4.6567   -4.3774   -9.9578 H         1 <0>         0.3946
     32 H9          3.8680   -7.0691   -8.5416 H         1 <0>         0.3925
     33 H10         3.2684    0.5476   -3.9697 H         1 <0>         0.4065
@<TRIPOS>BOND
     1    1    2 1
     2    1   24 1
     3    1   25 1
     4    1   26 1
     5    2    3 1
     6    3    8 ar
     7    3    4 ar
     8    4    5 ar
     9    4   27 1
    10    5    6 ar
    11    5   23 1
    12    6   13 1
    13    6    7 ar
    14    7    8 ar
    15    7    9 1
    16    8   28 1
    17    9   10 1
    18   10   11 2
    19   10   12 1
    20   12   16 1
    21   12   13 2
    22   13   14 1
    23   14   15 1
    24   15   20 ar
    25   15   16 ar
    26   16   17 ar
    27   17   18 ar
    28   17   29 1
    29   18   19 ar
    30   18   22 1
    31   19   20 ar
    32   19   21 1
    33   20   30 1
    34   21   31 1
    35   22   32 1
    36   23   33 1
