@<TRIPOS>MOLECULE
ZINC02712349
   54    56     0     0     0
SMALL
USER_CHARGES

@<TRIPOS>ATOM
      1 C1         -0.4974    1.4691    0.2750 C.3       1 <0>        -0.1527
      2 C2         -0.4532   -0.0602    0.2799 C.3       1 <0>         0.0605
      3 O1          0.4391   -0.5077    1.3024 O.3       1 <0>        -0.3474
      4 C3          0.5922   -1.8341    1.4399 C.2       1 <0>         0.4656
      5 O2         -0.0114   -2.5902    0.7162 O.2       1 <0>        -0.4790
      6 C4          1.5170   -2.3803    2.4971 C.3       1 <0>         0.0949
      7 H1          2.5089   -1.9460    2.3717 H         1 <0>         0.1134
      8 C5          0.9753   -2.0229    3.8826 C.3       1 <0>        -0.1764
      9 O3          1.5996   -3.8012    2.3698 O.3       1 <0>        -0.2816
     10 C6          2.7214   -4.3993    2.8493 C.ar      1 <0>         0.1236
     11 C7          3.6704   -3.6586    3.5282 C.ar      1 <0>        -0.1783
     12 C8          4.8197   -4.2612    4.0211 C.ar      1 <0>        -0.0954
     13 C9          5.0403   -5.6094    3.8451 C.ar      1 <0>        -0.0796
     14 C10         4.0979   -6.3798    3.1639 C.ar      1 <0>        -0.1130
     15 C11         2.9233   -5.7724    2.6650 C.ar      1 <0>        -0.0147
     16 C12         1.9524   -6.6101    1.9597 C.2       1 <0>        -0.1784
     17 C13         2.1974   -7.9221    1.8113 C.2       1 <0>         0.1076
     18 N1          3.3285   -8.5148    2.2971 N.am      1 <0>        -0.5042
     19 C14         4.2820   -7.8194    2.9481 C.2       1 <0>         0.5553
     20 O4          5.2779   -8.3824    3.3659 O.2       1 <0>        -0.5214
     21 C15         3.5177   -9.9529    2.0915 C.3       1 <0>         0.0778
     22 C16         4.2476  -10.1830    0.7933 C.2       1 <0>         0.4986
     23 O5          4.5773   -9.2387    0.1073 O.2       1 <0>        -0.5219
     24 N2          4.5340  -11.4382    0.3946 N.am      1 <0>        -0.7230
     25 C17         5.2436  -11.6619   -0.8674 C.3       1 <0>         0.1626
     26 C18         5.4382  -13.1412   -1.0789 C.ar      1 <0>        -0.1126
     27 C19         6.5714  -13.7658   -0.5923 C.ar      1 <0>        -0.0998
     28 C20         6.7500  -15.1228   -0.7862 C.ar      1 <0>        -0.1209
     29 C21         5.7952  -15.8553   -1.4664 C.ar      1 <0>        -0.1102
     30 C22         4.6616  -15.2309   -1.9522 C.ar      1 <0>        -0.1216
     31 C23         4.4810  -13.8747   -1.7545 C.ar      1 <0>        -0.1004
     32 H2          0.5014    1.8609    0.0825 H         1 <0>         0.0681
     33 H3         -1.1781    1.8105   -0.5049 H         1 <0>         0.0826
     34 H4         -0.8470    1.8256    1.2439 H         1 <0>         0.0682
     35 H5         -1.4520   -0.4519    0.4724 H         1 <0>         0.0709
     36 H6         -0.1036   -0.4167   -0.6890 H         1 <0>         0.0706
     37 H7          1.6442   -2.4179    4.6472 H         1 <0>         0.0829
     38 H8          0.9124   -0.9391    3.9797 H         1 <0>         0.0899
     39 H9         -0.0166   -2.4572    4.0080 H         1 <0>         0.0770
     40 H10         3.5165   -2.6000    3.6764 H         1 <0>         0.1376
     41 H11         5.5500   -3.6656    4.5487 H         1 <0>         0.1367
     42 H12         5.9384   -6.0676    4.2323 H         1 <0>         0.1407
     43 H13         1.0465   -6.1769    1.5622 H         1 <0>         0.1545
     44 H14         1.4739   -8.5309    1.2895 H         1 <0>         0.1578
     45 H15         4.1022  -10.3638    2.9147 H         1 <0>         0.1286
     46 H16         2.5461  -10.4456    2.0544 H         1 <0>         0.1233
     47 H17         4.2704  -12.1934    0.9432 H         1 <0>         0.4037
     48 H18         4.6591  -11.2510   -1.6907 H         1 <0>         0.0782
     49 H19         6.2152  -11.1692   -0.8303 H         1 <0>         0.0778
     50 H20         7.3174  -13.1935   -0.0609 H         1 <0>         0.1246
     51 H21         7.6356  -15.6106   -0.4067 H         1 <0>         0.1254
     52 H22         5.9350  -16.9153   -1.6185 H         1 <0>         0.1244
     53 H23         3.9157  -15.8032   -2.4839 H         1 <0>         0.1252
     54 H24         3.5935  -13.3876   -2.1308 H         1 <0>         0.1241
@<TRIPOS>BOND
     1    1    2 1
     2    1   32 1
     3    1   33 1
     4    1   34 1
     5    2    3 1
     6    2   35 1
     7    2   36 1
     8    3    4 1
     9    4    5 2
    10    4    6 1
    11    6    7 1
    12    6    8 1
    13    6    9 1
    14    8   37 1
    15    8   38 1
    16    8   39 1
    17    9   10 1
    18   10   15 ar
    19   10   11 ar
    20   11   12 ar
    21   11   40 1
    22   12   13 ar
    23   12   41 1
    24   13   14 ar
    25   13   42 1
    26   14   19 1
    27   14   15 ar
    28   15   16 1
    29   16   17 2
    30   16   43 1
    31   17   18 1
    32   17   44 1
    33   18   19 am
    34   18   21 1
    35   19   20 2
    36   21   22 1
    37   21   45 1
    38   21   46 1
    39   22   23 2
    40   22   24 am
    41   24   25 1
    42   24   47 1
    43   25   26 1
    44   25   48 1
    45   25   49 1
    46   26   31 ar
    47   26   27 ar
    48   27   28 ar
    49   27   50 1
    50   28   29 ar
    51   28   51 1
    52   29   30 ar
    53   29   52 1
    54   30   31 ar
    55   30   53 1
    56   31   54 1
@<TRIPOS>MOLECULE
ZINC02712350
   54    56     0     0     0
SMALL
USER_CHARGES

@<TRIPOS>ATOM
      1 C1         -0.6584    1.2727   -0.0715 C.3       1 <0>        -0.1528
      2 C2         -0.3847   -0.2325   -0.0879 C.3       1 <0>         0.0606
      3 O1          0.2718   -0.6105    1.1237 O.3       1 <0>        -0.3473
      4 C3          0.5844   -1.9079    1.2683 C.2       1 <0>         0.4658
      5 O2          0.3097   -2.6965    0.3950 O.2       1 <0>        -0.4794
      6 C4          1.2780   -2.3809    2.5198 C.3       1 <0>         0.0951
      7 H1          0.6960   -2.0837    3.3922 H         1 <0>         0.1135
      8 C5          2.6715   -1.7540    2.5986 C.3       1 <0>        -0.1770
      9 O3          1.3973   -3.8046    2.4892 O.3       1 <0>        -0.2815
     10 C6          1.5001   -4.4409    3.6853 C.ar      1 <0>         0.1236
     11 C7          1.6010   -3.7128    4.8558 C.ar      1 <0>        -0.1782
     12 C8          1.7069   -4.3544    6.0822 C.ar      1 <0>        -0.0954
     13 C9          1.7137   -5.7296    6.1606 C.ar      1 <0>        -0.0795
     14 C10         1.6127   -6.4878    4.9942 C.ar      1 <0>        -0.1130
     15 C11         1.4989   -5.8396    3.7434 C.ar      1 <0>        -0.0148
     16 C12         1.3892   -6.6647    2.5396 C.2       1 <0>        -0.1784
     17 C13         1.3936   -8.0027    2.6538 C.2       1 <0>         0.1076
     18 N1          1.4974   -8.6337    3.8612 N.am      1 <0>        -0.5042
     19 C14         1.6148   -7.9549    5.0197 C.2       1 <0>         0.5554
     20 O4          1.7064   -8.5524    6.0770 O.2       1 <0>        -0.5214
     21 C15         1.4943  -10.0982    3.8966 C.3       1 <0>         0.0777
     22 C16         2.9085  -10.6064    3.7840 C.2       1 <0>         0.4988
     23 O5          3.8285   -9.8224    3.6840 O.2       1 <0>        -0.5220
     24 N2          3.1510  -11.9321    3.7944 N.am      1 <0>        -0.7231
     25 C17         4.5259  -12.4262    3.6849 C.3       1 <0>         0.1627
     26 C18         4.5227  -13.9327    3.7214 C.ar      1 <0>        -0.1127
     27 C19         4.6207  -14.5951    4.9308 C.ar      1 <0>        -0.0998
     28 C20         4.6178  -15.9770    4.9642 C.ar      1 <0>        -0.1209
     29 C21         4.5164  -16.6966    3.7883 C.ar      1 <0>        -0.1102
     30 C22         4.4174  -16.0343    2.5790 C.ar      1 <0>        -0.1216
     31 C23         4.4160  -14.6523    2.5459 C.ar      1 <0>        -0.1004
     32 H2          0.2846    1.8125    0.0144 H         1 <0>         0.0683
     33 H3         -1.1592    1.5610   -0.9957 H         1 <0>         0.0826
     34 H4         -1.2956    1.5169    0.7784 H         1 <0>         0.0681
     35 H5         -1.3278   -0.7724   -0.1739 H         1 <0>         0.0706
     36 H6          0.2525   -0.4767   -0.9379 H         1 <0>         0.0709
     37 H7          2.5805   -0.6680    2.6220 H         1 <0>         0.0899
     38 H8          3.1731   -2.0961    3.5038 H         1 <0>         0.0830
     39 H9          3.2535   -2.0511    1.7262 H         1 <0>         0.0772
     40 H10         1.5979   -2.6335    4.8157 H         1 <0>         0.1376
     41 H11         1.7852   -3.7682    6.9858 H         1 <0>         0.1367
     42 H12         1.7972   -6.2181    7.1201 H         1 <0>         0.1407
     43 H13         1.3052   -6.2014    1.5677 H         1 <0>         0.1545
     44 H14         1.3118   -8.6017    1.7589 H         1 <0>         0.1578
     45 H15         1.0599  -10.4380    4.8368 H         1 <0>         0.1286
     46 H16         0.9034  -10.4805    3.0643 H         1 <0>         0.1232
     47 H17         2.4153  -12.5592    3.8744 H         1 <0>         0.4037
     48 H18         4.9603  -12.0864    2.7448 H         1 <0>         0.0782
     49 H19         5.1167  -12.0439    4.5173 H         1 <0>         0.0779
     50 H20         4.7000  -14.0329    5.8495 H         1 <0>         0.1246
     51 H21         4.6952  -16.4945    5.9090 H         1 <0>         0.1254
     52 H22         4.5148  -17.7763    3.8144 H         1 <0>         0.1244
     53 H23         4.3384  -16.5965    1.6603 H         1 <0>         0.1252
     54 H24         4.3349  -14.1349    1.6015 H         1 <0>         0.1241
@<TRIPOS>BOND
     1    1    2 1
     2    1   32 1
     3    1   33 1
     4    1   34 1
     5    2    3 1
     6    2   35 1
     7    2   36 1
     8    3    4 1
     9    4    5 2
    10    4    6 1
    11    6    7 1
    12    6    8 1
    13    6    9 1
    14    8   37 1
    15    8   38 1
    16    8   39 1
    17    9   10 1
    18   10   15 ar
    19   10   11 ar
    20   11   12 ar
    21   11   40 1
    22   12   13 ar
    23   12   41 1
    24   13   14 ar
    25   13   42 1
    26   14   19 1
    27   14   15 ar
    28   15   16 1
    29   16   17 2
    30   16   43 1
    31   17   18 1
    32   17   44 1
    33   18   19 am
    34   18   21 1
    35   19   20 2
    36   21   22 1
    37   21   45 1
    38   21   46 1
    39   22   23 2
    40   22   24 am
    41   24   25 1
    42   24   47 1
    43   25   26 1
    44   25   48 1
    45   25   49 1
    46   26   31 ar
    47   26   27 ar
    48   27   28 ar
    49   27   50 1
    50   28   29 ar
    51   28   51 1
    52   29   30 ar
    53   29   52 1
    54   30   31 ar
    55   30   53 1
    56   31   54 1
@<TRIPOS>MOLECULE
ZINC02712351
   54    56     0     0     0
SMALL
USER_CHARGES

@<TRIPOS>ATOM
      1 C1         -0.0077    1.4802   -0.5375 C.3       1 <0>        -0.1527
      2 C2         -0.0102   -0.0497   -0.5323 C.3       1 <0>         0.0606
      3 O1         -1.3347   -0.5231   -0.2798 O.3       1 <0>        -0.3474
      4 C3         -1.5096   -1.8534   -0.2425 C.2       1 <0>         0.4657
      5 O2         -0.5694   -2.5915   -0.4184 O.2       1 <0>        -0.4791
      6 C4         -2.8788   -2.4263    0.0188 C.3       1 <0>         0.0949
      7 H1         -3.2726   -2.0166    0.9489 H         1 <0>         0.1134
      8 C5         -3.8136   -2.0603   -1.1358 C.3       1 <0>        -0.1765
      9 O3         -2.7877   -3.8484    0.1254 O.3       1 <0>        -0.2816
     10 C6         -3.7543   -4.4761    0.8451 C.ar      1 <0>         0.1237
     11 C7         -4.8280   -3.7618    1.3422 C.ar      1 <0>        -0.1782
     12 C8         -5.8198   -4.3948    2.0788 C.ar      1 <0>        -0.0952
     13 C9         -5.7566   -5.7475    2.3308 C.ar      1 <0>        -0.0796
     14 C10        -4.6837   -6.4916    1.8400 C.ar      1 <0>        -0.1131
     15 C11        -3.6741   -5.8532    1.0845 C.ar      1 <0>        -0.0150
     16 C12        -2.5651   -6.6638    0.5798 C.2       1 <0>        -0.1779
     17 C13        -2.5386   -7.9810    0.8399 C.2       1 <0>         0.1071
     18 N1         -3.5152   -8.6036    1.5645 N.am      1 <0>        -0.5043
     19 C14        -4.5664   -7.9346    2.0785 C.2       1 <0>         0.5555
     20 O4         -5.4171   -8.5239    2.7206 O.2       1 <0>        -0.5214
     21 C15        -3.4094  -10.0452    1.8024 C.3       1 <0>         0.0777
     22 C16        -2.6463  -10.2891    3.0788 C.2       1 <0>         0.4992
     23 O5         -2.2316   -9.3510    3.7260 O.2       1 <0>        -0.5207
     24 N2         -2.4245  -11.5496    3.5010 N.am      1 <0>        -0.7244
     25 C17        -1.6827  -11.7867    4.7418 C.3       1 <0>         0.1637
     26 C18        -1.5738  -13.2697    4.9865 C.ar      1 <0>        -0.1238
     27 C19        -2.5521  -13.9237    5.7119 C.ar      1 <0>        -0.0692
     28 C20        -2.4536  -15.2837    5.9366 C.ar      1 <0>        -0.1548
     29 C21        -1.3744  -15.9913    5.4348 C.ar      1 <0>         0.1092
     30 C22        -0.3952  -15.3353    4.7084 C.ar      1 <0>        -0.1554
     31 C23        -0.4985  -13.9761    4.4805 C.ar      1 <0>        -0.0697
     32 F1         -1.2768  -17.3208    5.6541 F         1 <0>        -0.1363
     33 H2          1.0026    1.8413   -0.7301 H         1 <0>         0.0826
     34 H3         -0.6776    1.8420   -1.3175 H         1 <0>         0.0682
     35 H4         -0.3462    1.8474    0.4314 H         1 <0>         0.0681
     36 H5          0.3284   -0.4169   -1.5011 H         1 <0>         0.0709
     37 H6          0.6598   -0.4115    0.2477 H         1 <0>         0.0706
     38 H7         -3.4198   -2.4699   -2.0660 H         1 <0>         0.0770
     39 H8         -4.8039   -2.4746   -0.9469 H         1 <0>         0.0829
     40 H9         -3.8831   -0.9755   -1.2172 H         1 <0>         0.0899
     41 H10        -4.8959   -2.7002    1.1559 H         1 <0>         0.1376
     42 H11        -6.6509   -3.8196    2.4592 H         1 <0>         0.1367
     43 H12        -6.5336   -6.2295    2.9056 H         1 <0>         0.1407
     44 H13        -1.7749   -6.2066    0.0028 H         1 <0>         0.1545
     45 H14        -1.7156   -8.5696    0.4622 H         1 <0>         0.1579
     46 H15        -4.4080  -10.4735    1.8886 H         1 <0>         0.1289
     47 H16        -2.8840  -10.5132    0.9699 H         1 <0>         0.1235
     48 H17        -2.7562  -12.2999    2.9833 H         1 <0>         0.4041
     49 H18        -0.6840  -11.3584    4.6556 H         1 <0>         0.0807
     50 H19        -2.2080  -11.3187    5.5744 H         1 <0>         0.0804
     51 H20        -3.3936  -13.3715    6.1036 H         1 <0>         0.1362
     52 H21        -3.2179  -15.7944    6.5036 H         1 <0>         0.1393
     53 H22         0.4472  -15.8861    4.3167 H         1 <0>         0.1391
     54 H23         0.2629  -13.4649    3.9102 H         1 <0>         0.1357
@<TRIPOS>BOND
     1    1    2 1
     2    1   33 1
     3    1   34 1
     4    1   35 1
     5    2    3 1
     6    2   36 1
     7    2   37 1
     8    3    4 1
     9    4    5 2
    10    4    6 1
    11    6    7 1
    12    6    8 1
    13    6    9 1
    14    8   38 1
    15    8   39 1
    16    8   40 1
    17    9   10 1
    18   10   15 ar
    19   10   11 ar
    20   11   12 ar
    21   11   41 1
    22   12   13 ar
    23   12   42 1
    24   13   14 ar
    25   13   43 1
    26   14   19 1
    27   14   15 ar
    28   15   16 1
    29   16   17 2
    30   16   44 1
    31   17   18 1
    32   17   45 1
    33   18   19 am
    34   18   21 1
    35   19   20 2
    36   21   22 1
    37   21   46 1
    38   21   47 1
    39   22   23 2
    40   22   24 am
    41   24   25 1
    42   24   48 1
    43   25   26 1
    44   25   49 1
    45   25   50 1
    46   26   31 ar
    47   26   27 ar
    48   27   28 ar
    49   27   51 1
    50   28   29 ar
    51   28   52 1
    52   29   30 ar
    53   29   32 1
    54   30   31 ar
    55   30   53 1
    56   31   54 1
@<TRIPOS>MOLECULE
ZINC02712352
   54    56     0     0     0
SMALL
USER_CHARGES

@<TRIPOS>ATOM
      1 C1          0.3759    1.2891   -0.5076 C.3       1 <0>        -0.1528
      2 C2          0.2768   -0.2225   -0.2925 C.3       1 <0>         0.0606
      3 O1         -1.0947   -0.6210   -0.3374 O.3       1 <0>        -0.3472
      4 C3         -1.3559   -1.9263   -0.1649 C.2       1 <0>         0.4658
      5 O2         -0.4501   -2.7047    0.0181 O.2       1 <0>        -0.4794
      6 C4         -2.7790   -2.4210   -0.1995 C.3       1 <0>         0.0951
      7 H1         -3.2483   -2.1124   -1.1336 H         1 <0>         0.1135
      8 C5         -3.5534   -1.8295    0.9800 C.3       1 <0>        -0.1770
      9 O3         -2.7899   -3.8471   -0.1094 O.3       1 <0>        -0.2815
     10 C6         -3.8673   -4.4899   -0.6312 C.ar      1 <0>         0.1237
     11 C7         -4.9428   -3.7687   -1.1144 C.ar      1 <0>        -0.1781
     12 C8         -6.0478   -4.4170   -1.6487 C.ar      1 <0>        -0.0952
     13 C9         -6.0977   -5.7922   -1.7095 C.ar      1 <0>        -0.0796
     14 C10        -5.0252   -6.5436   -1.2290 C.ar      1 <0>        -0.1131
     15 C11        -3.8952   -5.8884   -0.6892 C.ar      1 <0>        -0.0150
     16 C12        -2.7850   -6.7062   -0.1988 C.2       1 <0>        -0.1778
     17 C13        -2.8653   -8.0443   -0.2788 C.2       1 <0>         0.1070
     18 N1         -3.9530   -8.6819   -0.8053 N.am      1 <0>        -0.5044
     19 C14        -5.0255   -8.0103   -1.2692 C.2       1 <0>         0.5555
     20 O4         -5.9777   -8.6136   -1.7304 O.2       1 <0>        -0.5215
     21 C15        -3.9593  -10.1461   -0.8549 C.3       1 <0>         0.0776
     22 C16        -4.5606  -10.6892    0.4157 C.2       1 <0>         0.4995
     23 O5         -4.9459   -9.9282    1.2779 O.2       1 <0>        -0.5208
     24 N2         -4.6701  -12.0206    0.5940 N.am      1 <0>        -0.7245
     25 C17        -5.2547  -12.5486    1.8292 C.3       1 <0>         0.1639
     26 C18        -5.2612  -14.0547    1.7781 C.ar      1 <0>        -0.1239
     27 C19        -6.3476  -14.7231    1.2449 C.ar      1 <0>        -0.0692
     28 C20        -6.3544  -16.1042    1.1971 C.ar      1 <0>        -0.1548
     29 C21        -5.2727  -16.8186    1.6834 C.ar      1 <0>         0.1093
     30 C22        -4.1852  -16.1482    2.2172 C.ar      1 <0>        -0.1554
     31 C23        -4.1783  -14.7668    2.2592 C.ar      1 <0>        -0.0697
     32 F1         -5.2785  -18.1688    1.6376 F         1 <0>        -0.1363
     33 H2          1.4221    1.5931   -0.4733 H         1 <0>         0.0826
     34 H3         -0.0456    1.5462   -1.4793 H         1 <0>         0.0681
     35 H4         -0.1781    1.8048    0.2768 H         1 <0>         0.0683
     36 H5          0.8309   -0.7381   -1.0768 H         1 <0>         0.0706
     37 H6          0.6983   -0.4796    0.6793 H         1 <0>         0.0710
     38 H7         -3.0841   -2.1381    1.9142 H         1 <0>         0.0772
     39 H8         -3.5451   -0.7417    0.9113 H         1 <0>         0.0900
     40 H9         -4.5827   -2.1872    0.9550 H         1 <0>         0.0830
     41 H10        -4.9233   -2.6896   -1.0755 H         1 <0>         0.1376
     42 H11        -6.8787   -3.8361   -2.0210 H         1 <0>         0.1368
     43 H12        -6.9628   -6.2861   -2.1267 H         1 <0>         0.1407
     44 H13        -1.9085   -6.2376    0.2236 H         1 <0>         0.1545
     45 H14        -2.0401   -8.6380    0.0858 H         1 <0>         0.1579
     46 H15        -4.5512  -10.4781   -1.7079 H         1 <0>         0.1288
     47 H16        -2.9372  -10.5105   -0.9580 H         1 <0>         0.1235
     48 H17        -4.3620  -12.6293   -0.0956 H         1 <0>         0.4041
     49 H18        -4.6628  -12.2166    2.6821 H         1 <0>         0.0807
     50 H19        -6.2767  -12.1842    1.9322 H         1 <0>         0.0804
     51 H20        -7.1914  -14.1656    0.8659 H         1 <0>         0.1362
     52 H21        -7.2034  -16.6261    0.7808 H         1 <0>         0.1393
     53 H22        -3.3410  -16.7044    2.5972 H         1 <0>         0.1391
     54 H23        -3.3282  -14.2436    2.6714 H         1 <0>         0.1357
@<TRIPOS>BOND
     1    1    2 1
     2    1   33 1
     3    1   34 1
     4    1   35 1
     5    2    3 1
     6    2   36 1
     7    2   37 1
     8    3    4 1
     9    4    5 2
    10    4    6 1
    11    6    7 1
    12    6    8 1
    13    6    9 1
    14    8   38 1
    15    8   39 1
    16    8   40 1
    17    9   10 1
    18   10   15 ar
    19   10   11 ar
    20   11   12 ar
    21   11   41 1
    22   12   13 ar
    23   12   42 1
    24   13   14 ar
    25   13   43 1
    26   14   19 1
    27   14   15 ar
    28   15   16 1
    29   16   17 2
    30   16   44 1
    31   17   18 1
    32   17   45 1
    33   18   19 am
    34   18   21 1
    35   19   20 2
    36   21   22 1
    37   21   46 1
    38   21   47 1
    39   22   23 2
    40   22   24 am
    41   24   25 1
    42   24   48 1
    43   25   26 1
    44   25   49 1
    45   25   50 1
    46   26   31 ar
    47   26   27 ar
    48   27   28 ar
    49   27   51 1
    50   28   29 ar
    51   28   52 1
    52   29   30 ar
    53   29   32 1
    54   30   31 ar
    55   30   53 1
    56   31   54 1
