@<TRIPOS>MOLECULE
ZINC01539579
   53    55     0     0     0
SMALL
USER_CHARGES

@<TRIPOS>ATOM
      1 C1         -0.0184    1.5028    0.0103 C.3       1 <0>        -0.1142
      2 C2          0.0021   -0.0041    0.0020 C.ar      1 <0>        -0.0728
      3 C3          0.0059   -0.6899   -1.1923 C.ar      1 <0>        -0.1203
      4 C4          0.0272   -2.0796   -1.2131 C.ar      1 <0>        -0.0621
      5 C5          0.0478   -2.7839   -0.0284 C.ar      1 <0>        -0.0668
      6 C6          0.0400   -2.1020    1.1788 C.ar      1 <0>        -0.0985
      7 C7          0.0231   -0.7112    1.2029 C.ar      1 <0>        -0.0418
      8 C8          0.0217    0.0137    2.4968 C.2       1 <0>        -0.0323
      9 C9          1.1360    0.6210    2.9254 C.2       1 <0>        -0.1735
     10 C10        -1.2120    0.0660    3.3151 C.ar      1 <0>        -0.0657
     11 C11        -1.7321   -1.1055    3.8683 C.ar      1 <0>        -0.1208
     12 C12        -2.8741   -1.0587    4.6256 C.ar      1 <0>        -0.0854
     13 C13        -3.5179    0.1638    4.8442 C.ar      1 <0>        -0.1283
     14 C14        -2.9954    1.3369    4.2896 C.ar      1 <0>        -0.0860
     15 C15        -1.8502    1.2876    3.5371 C.ar      1 <0>        -0.1227
     16 C16        -4.7457    0.2157    5.6574 C.2       1 <0>         0.5179
     17 O1         -5.2024   -0.8105    6.1417 O.co2     1 <0>        -0.6875
     18 O2         -5.3082    1.2850    5.8482 O.co2     1 <0>        -0.6876
     19 C17         0.0879   -4.2891    0.0190 C.3       1 <0>        -0.0214
     20 C18        -0.3365   -4.8809   -1.3234 C.3       1 <0>        -0.1116
     21 C19         0.4845   -4.2083   -2.4299 C.3       1 <0>        -0.1102
     22 C20         0.0227   -2.7583   -2.5584 C.3       1 <0>        -0.0222
     23 C21        -1.3949   -2.7293   -3.1333 C.3       1 <0>        -0.1396
     24 C22         0.9650   -2.0106   -3.5039 C.3       1 <0>        -0.1406
     25 C23         1.5115   -4.7458    0.3441 C.3       1 <0>        -0.1382
     26 C24        -0.8617   -4.7848    1.1115 C.3       1 <0>        -0.1446
     27 H1          1.0042    1.8801    0.0026 H         1 <0>         0.0670
     28 H2         -0.5455    1.8639   -0.8728 H         1 <0>         0.0624
     29 H3         -0.5286    1.8543    0.9071 H         1 <0>         0.0713
     30 H4         -0.0082   -0.1420   -2.1229 H         1 <0>         0.1199
     31 H5          0.0510   -2.6543    2.1068 H         1 <0>         0.1223
     32 H6          1.1350    1.1488    3.8676 H         1 <0>         0.1054
     33 H7          2.0354    0.5828    2.3288 H         1 <0>         0.0997
     34 H8         -1.2348   -2.0492    3.6994 H         1 <0>         0.1108
     35 H9         -3.2766   -1.9653    5.0528 H         1 <0>         0.1261
     36 H10        -3.4913    2.2814    4.4575 H         1 <0>         0.1267
     37 H11        -1.4443    2.1937    3.1122 H         1 <0>         0.1131
     38 H12        -0.1479   -5.9544   -1.3274 H         1 <0>         0.0657
     39 H13        -1.3975   -4.6935   -1.4882 H         1 <0>         0.0692
     40 H14         1.5426   -4.2350   -2.1697 H         1 <0>         0.0677
     41 H15         0.3248   -4.7295   -3.3738 H         1 <0>         0.0648
     42 H16        -1.7207   -1.6951   -3.2449 H         1 <0>         0.0557
     43 H17        -1.4023   -3.2196   -4.1068 H         1 <0>         0.0561
     44 H18        -2.0717   -3.2526   -2.4579 H         1 <0>         0.0592
     45 H19         1.9746   -2.0203   -3.0932 H         1 <0>         0.0553
     46 H20         0.9644   -2.4988   -4.4784 H         1 <0>         0.0559
     47 H21         0.6272   -0.9801   -3.6135 H         1 <0>         0.0581
     48 H22         1.8108   -4.3417    1.3112 H         1 <0>         0.0559
     49 H23         1.5446   -5.8348    0.3794 H         1 <0>         0.0567
     50 H24         2.1933   -4.3864   -0.4266 H         1 <0>         0.0564
     51 H25        -1.8760   -4.4531    0.8892 H         1 <0>         0.0587
     52 H26        -0.8356   -5.8738    1.1490 H         1 <0>         0.0570
     53 H27        -0.5501   -4.3805    2.0746 H         1 <0>         0.0598
@<TRIPOS>BOND
     1    1    2 1
     2    1   27 1
     3    1   28 1
     4    1   29 1
     5    2    7 ar
     6    2    3 ar
     7    3    4 ar
     8    3   30 1
     9    4   22 1
    10    4    5 ar
    11    5    6 ar
    12    5   19 1
    13    6    7 ar
    14    6   31 1
    15    7    8 1
    16    8    9 2
    17    8   10 1
    18    9   32 1
    19    9   33 1
    20   10   15 ar
    21   10   11 ar
    22   11   12 ar
    23   11   34 1
    24   12   13 ar
    25   12   35 1
    26   13   14 ar
    27   13   16 1
    28   14   15 ar
    29   14   36 1
    30   15   37 1
    31   16   17 2
    32   16   18 1
    33   19   20 1
    34   19   25 1
    35   19   26 1
    36   20   21 1
    37   20   38 1
    38   20   39 1
    39   21   22 1
    40   21   40 1
    41   21   41 1
    42   22   23 1
    43   22   24 1
    44   23   42 1
    45   23   43 1
    46   23   44 1
    47   24   45 1
    48   24   46 1
    49   24   47 1
    50   25   48 1
    51   25   49 1
    52   25   50 1
    53   26   51 1
    54   26   52 1
    55   26   53 1
@<TRIPOS>MOLECULE
ZINC01892655
   64    65     0     0     0
SMALL
USER_CHARGES
3-methyl-7-(5,5,8,8-tetramethyl-3-propoxy-tetralin-2-yl)-octa-2,4,6-trienoic acid
@<TRIPOS>ATOM
      1 C1          1.2679    0.9152   -2.2124 C.3       1 <0>        -0.1489
      2 C2          0.2710    1.4468   -1.1807 C.3       1 <0>        -0.1232
      3 C3          0.7206    1.0345    0.2224 C.3       1 <0>         0.0592
      4 O1         -0.2105    1.5310    1.1861 O.3       1 <0>        -0.3008
      5 C4          0.0435    1.2510    2.4895 C.ar      1 <0>         0.1431
      6 C5          1.1607    0.5162    2.8397 C.ar      1 <0>        -0.2099
      7 C6          1.4307    0.2243    4.1705 C.ar      1 <0>        -0.0233
      8 C7          0.5821    0.6745    5.1628 C.ar      1 <0>        -0.1001
      9 C8         -0.5432    1.4090    4.8300 C.ar      1 <0>        -0.0698
     10 C9         -0.8237    1.7103    3.4949 C.ar      1 <0>        -0.0709
     11 C10        -2.0151    2.4934    3.1459 C.2       1 <0>        -0.0952
     12 C11        -1.8884    3.7912    2.7745 C.2       1 <0>        -0.0936
     13 C12        -0.6141    4.3876    2.7235 C.2       1 <0>        -0.1397
     14 C13        -0.4868    5.6919    2.3502 C.2       1 <0>        -0.0861
     15 C14         0.7846    6.2870    2.2994 C.2       1 <0>        -0.0903
     16 C15         0.9119    7.5911    1.9261 C.2       1 <0>        -0.1510
     17 C16         2.1934    8.1459    1.7272 C.2       1 <0>         0.4663
     18 O2          3.1798    7.4343    1.7808 O.co2     1 <0>        -0.6275
     19 C17         2.0078    5.4830    2.6577 C.3       1 <0>        -0.0958
     20 C18        -3.3790    1.8550    3.2005 C.3       1 <0>        -0.1027
     21 C19         0.8308    0.4051    6.6244 C.3       1 <0>        -0.0171
     22 C20         1.8171   -0.7479    6.7979 C.3       1 <0>        -0.1098
     23 C21         3.0532   -0.4601    5.9377 C.3       1 <0>        -0.1121
     24 C22         2.6602   -0.5948    4.4683 C.3       1 <0>        -0.0236
     25 C23         2.3747   -2.0650    4.1553 C.3       1 <0>        -0.1370
     26 C24         3.8151   -0.1082    3.5907 C.3       1 <0>        -0.1431
     27 C25         1.4053    1.6632    7.2787 C.3       1 <0>        -0.1413
     28 C26        -0.4920    0.0438    7.3030 C.3       1 <0>        -0.1414
     29 H1          2.2554    1.3302   -2.0108 H         1 <0>         0.0589
     30 H2          1.3109   -0.1721   -2.1495 H         1 <0>         0.0543
     31 H3          0.9475    1.2089   -3.2121 H         1 <0>         0.0635
     32 H4         -0.7166    1.0319   -1.3823 H         1 <0>         0.0706
     33 H5          0.2280    2.5341   -1.2436 H         1 <0>         0.0769
     34 H6          0.7636   -0.0528    0.2854 H         1 <0>         0.0564
     35 H7          1.7082    1.4495    0.4241 H         1 <0>         0.0616
     36 H8          1.8313    0.1646    2.0695 H         1 <0>         0.1264
     37 H9         -1.2067    1.7555    5.6085 H         1 <0>         0.1270
     38 H10        -2.7650    4.3674    2.5177 H         1 <0>         0.1118
     39 H11         0.2625    3.8114    2.9803 H         1 <0>         0.1176
     40 H12        -1.3634    6.2681    2.0934 H         1 <0>         0.1090
     41 H13         0.0316    8.2001    1.7824 H         1 <0>         0.1036
     42 H14         2.4549    5.0776    1.7500 H         1 <0>         0.0604
     43 H15         2.7295    6.1250    3.1627 H         1 <0>         0.0876
     44 H16         1.7237    4.6648    3.3195 H         1 <0>         0.0343
     45 H17        -3.8045    1.9913    4.1947 H         1 <0>         0.0636
     46 H18        -4.0286    2.3219    2.4601 H         1 <0>         0.0628
     47 H19        -3.2905    0.7900    2.9860 H         1 <0>         0.0590
     48 H20         2.1089   -0.8270    7.8451 H         1 <0>         0.0652
     49 H21         1.3531   -1.6797    6.4747 H         1 <0>         0.0669
     50 H22         3.4076    0.5522    6.1315 H         1 <0>         0.0711
     51 H23         3.8401   -1.1761    6.1749 H         1 <0>         0.0655
     52 H24         2.1133   -2.1681    3.1021 H         1 <0>         0.0537
     53 H25         3.2619   -2.6610    4.3695 H         1 <0>         0.0572
     54 H26         1.5457   -2.4133    4.7713 H         1 <0>         0.0580
     55 H27         4.0155    0.9419    3.8032 H         1 <0>         0.0604
     56 H28         4.7066   -0.6984    3.8032 H         1 <0>         0.0575
     57 H29         3.5462   -0.2216    2.5405 H         1 <0>         0.0559
     58 H30         0.6954    2.4836    7.1741 H         1 <0>         0.0571
     59 H31         1.5866    1.4722    8.3364 H         1 <0>         0.0555
     60 H32         2.3432    1.9300    6.7917 H         1 <0>         0.0594
     61 H33        -0.9100   -0.8466    6.8334 H         1 <0>         0.0548
     62 H34        -0.3162   -0.1518    8.3608 H         1 <0>         0.0557
     63 H35        -1.1923    0.8725    7.1983 H         1 <0>         0.0585
     64 O3          2.3262    9.4663    1.4774 O.co2     1 <0>        -0.7720
@<TRIPOS>BOND
     1    1    2 1
     2    1   29 1
     3    1   30 1
     4    1   31 1
     5    2    3 1
     6    2   32 1
     7    2   33 1
     8    3    4 1
     9    3   34 1
    10    3   35 1
    11    4    5 1
    12    5   10 ar
    13    5    6 ar
    14    6    7 ar
    15    6   36 1
    16    7   24 1
    17    7    8 ar
    18    8    9 ar
    19    8   21 1
    20    9   10 ar
    21    9   37 1
    22   10   11 1
    23   11   12 2
    24   11   20 1
    25   12   13 1
    26   12   38 1
    27   13   14 2
    28   13   39 1
    29   14   15 1
    30   14   40 1
    31   15   16 2
    32   15   19 1
    33   16   17 1
    34   16   41 1
    35   17   18 2
    36   17   64 1
    37   19   42 1
    38   19   43 1
    39   19   44 1
    40   20   45 1
    41   20   46 1
    42   20   47 1
    43   21   22 1
    44   21   27 1
    45   21   28 1
    46   22   23 1
    47   22   48 1
    48   22   49 1
    49   23   24 1
    50   23   50 1
    51   23   51 1
    52   24   25 1
    53   24   26 1
    54   25   52 1
    55   25   53 1
    56   25   54 1
    57   26   55 1
    58   26   56 1
    59   26   57 1
    60   27   58 1
    61   27   59 1
    62   27   60 1
    63   28   61 1
    64   28   62 1
    65   28   63 1
@<TRIPOS>MOLECULE
ZINC03873121
   55    58     0     0     0
SMALL
USER_CHARGES
6-[1-(3,5,5,8,8-pentamethyltetralin-2-yl)cyclopropyl]pyridine-3-carboxylic acid
@<TRIPOS>ATOM
      1 C1          3.8982    6.1941    0.4554 C.3       1 <0>        -0.1214
      2 C2          3.7381    7.5328   -0.2177 C.ar      1 <0>        -0.0654
      3 C3          4.8501    8.2353   -0.6348 C.ar      1 <0>        -0.1205
      4 C4          4.7131    9.4720   -1.2513 C.ar      1 <0>        -0.0608
      5 C5          3.4563    9.9959   -1.4575 C.ar      1 <0>        -0.0693
      6 C6          2.3384    9.2863   -1.0389 C.ar      1 <0>        -0.1038
      7 C7          2.4767    8.0589   -0.4241 C.ar      1 <0>        -0.0410
      8 C8          1.2569    7.2972    0.0264 C.3       1 <0>        -0.0414
      9 C9         -0.0240    7.4659   -0.7932 C.3       1 <0>        -0.1535
     10 C10         0.7659    6.1569   -0.8676 C.3       1 <0>        -0.1441
     11 C11         1.1119    7.1250    1.5165 C.ar      1 <0>         0.1567
     12 C12         1.9311    7.8453    2.3676 C.ar      1 <0>        -0.1754
     13 C13         1.7951    7.6852    3.7350 C.ar      1 <0>        -0.0452
     14 C14         0.8241    6.7918    4.2053 C.ar      1 <0>        -0.1647
     15 C15         0.0412    6.0991    3.2804 C.ar      1 <0>         0.1382
     16 N1          0.2056    6.2901    1.9879 N.ar      1 <0>        -0.4969
     17 C16         0.6362    6.5816    5.6554 C.2       1 <0>         0.4940
     18 O1          1.3267    7.1861    6.4512 O.co2     1 <0>        -0.6289
     19 C17         3.2323   11.3224   -2.1351 C.3       1 <0>        -0.0206
     20 C18         4.5161   12.1497   -2.1341 C.3       1 <0>        -0.1114
     21 C19         5.6522   11.2815   -2.6875 C.3       1 <0>        -0.1102
     22 C20         5.9695   10.1932   -1.6640 C.3       1 <0>        -0.0221
     23 C21         6.6126   10.8319   -0.4314 C.3       1 <0>        -0.1397
     24 C22         6.9475    9.1908   -2.2801 C.3       1 <0>        -0.1412
     25 C23         2.7879   11.0824   -3.5794 C.3       1 <0>        -0.1380
     26 C24         2.1369   12.0898   -1.3921 C.3       1 <0>        -0.1433
     27 H1          3.9807    5.4143   -0.3017 H         1 <0>         0.0671
     28 H2          4.7989    6.2013    1.0691 H         1 <0>         0.0629
     29 H3          3.0307    5.9982    1.0856 H         1 <0>         0.0757
     30 H4          5.8352    7.8218   -0.4768 H         1 <0>         0.1205
     31 H5          1.3526    9.6985   -1.1962 H         1 <0>         0.1226
     32 H6         -0.9715    7.4523   -0.2547 H         1 <0>         0.1014
     33 H7          0.0157    8.1275   -1.6585 H         1 <0>         0.0943
     34 H8          1.3250    5.9578   -1.7819 H         1 <0>         0.0919
     35 H9          0.3380    5.2820   -0.3781 H         1 <0>         0.1083
     36 H10         2.6693    8.5252    1.9687 H         1 <0>         0.1254
     37 H11         2.4215    8.2346    4.4221 H         1 <0>         0.1355
     38 H12        -0.7084    5.4036    3.6279 H         1 <0>         0.1655
     39 H13         4.7528   12.4587   -1.1160 H         1 <0>         0.0689
     40 H14         4.3866   13.0299   -2.7640 H         1 <0>         0.0649
     41 H15         6.5361   11.8968   -2.8551 H         1 <0>         0.0647
     42 H16         5.3408   10.8231   -3.6261 H         1 <0>         0.0676
     43 H17         6.8583   10.0559    0.2936 H         1 <0>         0.0566
     44 H18         7.5224   11.3549   -0.7261 H         1 <0>         0.0560
     45 H19         5.9154   11.5400    0.0165 H         1 <0>         0.0587
     46 H20         6.4895    8.7261   -3.1533 H         1 <0>         0.0553
     47 H21         7.8582    9.7091   -2.5800 H         1 <0>         0.0558
     48 H22         7.1914    8.4230   -1.5459 H         1 <0>         0.0588
     49 H23         1.8610   10.5088   -3.5837 H         1 <0>         0.0555
     50 H24         2.6247   12.0403   -4.0732 H         1 <0>         0.0559
     51 H25         3.5613   10.5271   -4.1100 H         1 <0>         0.0569
     52 H26         2.4452   12.2545   -0.3596 H         1 <0>         0.0574
     53 H27         1.9719   13.0506   -1.8796 H         1 <0>         0.0560
     54 H28         1.2134   11.5111   -1.4076 H         1 <0>         0.0592
     55 O2         -0.3010    5.7196    6.0951 O.co2     1 <0>        -0.7498
@<TRIPOS>BOND
     1    1    2 1
     2    1   27 1
     3    1   28 1
     4    1   29 1
     5    2    7 ar
     6    2    3 ar
     7    3    4 ar
     8    3   30 1
     9    4   22 1
    10    4    5 ar
    11    5    6 ar
    12    5   19 1
    13    6    7 ar
    14    6   31 1
    15    7    8 1
    16    8   10 1
    17    8    9 1
    18    8   11 1
    19    9   10 1
    20    9   32 1
    21    9   33 1
    22   10   34 1
    23   10   35 1
    24   11   16 ar
    25   11   12 ar
    26   12   13 ar
    27   12   36 1
    28   13   14 ar
    29   13   37 1
    30   14   15 ar
    31   14   17 1
    32   15   16 ar
    33   15   38 1
    34   17   18 2
    35   17   55 1
    36   19   20 1
    37   19   25 1
    38   19   26 1
    39   20   21 1
    40   20   39 1
    41   20   40 1
    42   21   22 1
    43   21   41 1
    44   21   42 1
    45   22   23 1
    46   22   24 1
    47   23   43 1
    48   23   44 1
    49   23   45 1
    50   24   46 1
    51   24   47 1
    52   24   48 1
    53   25   49 1
    54   25   50 1
    55   25   51 1
    56   26   52 1
    57   26   53 1
    58   26   54 1
@<TRIPOS>MOLECULE
ZINC13775912
   58    62     0     0     0
SMALL
USER_CHARGES
4-(tetramethylBLAHyl)benzoic acid
@<TRIPOS>ATOM
      1 C1         -3.5377    7.7777    3.6581 C.3       1 <0>        -0.1405
      2 C2         -2.9355    7.9170    2.2585 C.3       1 <0>        -0.0241
      3 C3         -2.6149    9.3863    1.9922 C.3       1 <0>        -0.1122
      4 C4         -3.9364   10.1538    1.8680 C.3       1 <0>        -0.1117
      5 C5         -4.6164    9.7344    0.5666 C.3       1 <0>        -0.0231
      6 C6         -4.6937    8.2332    0.4671 C.ar      1 <0>        -0.0470
      7 C7         -3.9177    7.3963    1.2406 C.ar      1 <0>        -0.0477
      8 C8         -4.0277    6.0209    1.1004 C.ar      1 <0>        -0.0723
      9 C9         -4.9159    5.4643    0.1797 C.ar      1 <0>        -0.0844
     10 C10        -5.6990    6.3222   -0.6106 C.ar      1 <0>        -0.0985
     11 C11        -5.5869    7.6909   -0.4651 C.ar      1 <0>        -0.0765
     12 S1         -6.8233    5.6389   -1.7845 S.3       1 <0>        -0.0298
     13 C12        -7.8887    4.6395   -0.7970 C.ar      1 <0>        -0.1644
     14 C13        -9.2464    4.9085   -0.7685 C.ar      1 <0>        -0.0581
     15 C14       -10.0927    4.1361    0.0086 C.ar      1 <0>        -0.1394
     16 C15        -9.5828    3.0924    0.7595 C.ar      1 <0>        -0.0854
     17 C16        -8.2326    2.8116    0.7387 C.ar      1 <0>        -0.1169
     18 C17        -7.3620    3.5824   -0.0446 C.ar      1 <0>         0.1659
     19 N1         -6.0459    3.2752   -0.0491 N.2       1 <0>        -0.5157
     20 C18        -5.0144    4.0074    0.0500 C.2       1 <0>         0.3399
     21 C19        -3.7242    3.2857    0.0390 C.ar      1 <0>        -0.0963
     22 C20        -2.5578    3.9459   -0.3559 C.ar      1 <0>        -0.0990
     23 C21        -1.3565    3.2739   -0.3667 C.ar      1 <0>        -0.0948
     24 C22        -1.3035    1.9315    0.0178 C.ar      1 <0>        -0.0855
     25 C23        -2.4709    1.2699    0.4082 C.ar      1 <0>        -0.0897
     26 C24        -3.6712    1.9436    0.4239 C.ar      1 <0>        -0.0793
     27 C25        -0.0146    1.2102    0.0059 C.2       1 <0>         0.4858
     28 O1          0.9993    1.7839   -0.3383 O.co2     1 <0>        -0.6279
     29 C26        -6.0311   10.3159    0.5269 C.3       1 <0>        -0.1430
     30 C27        -3.8151   10.2769   -0.6186 C.3       1 <0>        -0.1411
     31 C28        -1.6461    7.0971    2.1810 C.3       1 <0>        -0.1476
     32 H1         -3.7501    6.7277    3.8594 H         1 <0>         0.0573
     33 H2         -2.8300    8.1533    4.3972 H         1 <0>         0.0617
     34 H3         -4.4619    8.3527    3.7149 H         1 <0>         0.0570
     35 H4         -2.0317    9.7907    2.8194 H         1 <0>         0.0703
     36 H5         -2.0487    9.4764    1.0651 H         1 <0>         0.0717
     37 H6         -4.5813    9.9135    2.7132 H         1 <0>         0.0695
     38 H7         -3.7381   11.2255    1.8498 H         1 <0>         0.0691
     39 H8         -3.4176    5.3724    1.7116 H         1 <0>         0.1387
     40 H9         -6.1988    8.3449   -1.0686 H         1 <0>         0.1362
     41 H10        -9.6464    5.7232   -1.3538 H         1 <0>         0.1317
     42 H11       -11.1513    4.3488    0.0289 H         1 <0>         0.1290
     43 H12       -10.2461    2.4936    1.3661 H         1 <0>         0.1302
     44 H13        -7.8442    1.9947    1.3287 H         1 <0>         0.1335
     45 H14        -2.5988    4.9834   -0.6531 H         1 <0>         0.1197
     46 H15        -0.4550    3.7842   -0.6720 H         1 <0>         0.1312
     47 H16        -2.4307    0.2313    0.7015 H         1 <0>         0.1350
     48 H17        -4.5728    1.4334    0.7292 H         1 <0>         0.1266
     49 H18        -5.9785   11.4034    0.5778 H         1 <0>         0.0603
     50 H19        -6.5202   10.0187   -0.4008 H         1 <0>         0.0595
     51 H20        -6.6025    9.9397    1.3755 H         1 <0>         0.0565
     52 H21        -2.8032    9.8728   -0.5884 H         1 <0>         0.0616
     53 H22        -4.2974    9.9796   -1.5498 H         1 <0>         0.0569
     54 H23        -3.7738   11.3646   -0.5619 H         1 <0>         0.0602
     55 H24        -1.2186    7.1858    1.1822 H         1 <0>         0.0614
     56 H25        -0.9331    7.4708    2.9159 H         1 <0>         0.0619
     57 H26        -1.8679    6.0505    2.3896 H         1 <0>         0.0638
     58 O2          0.0374   -0.0825    0.3819 O.co2     1 <0>        -0.7503
@<TRIPOS>BOND
     1    1    2 1
     2    1   32 1
     3    1   33 1
     4    1   34 1
     5    2    7 1
     6    2    3 1
     7    2   31 1
     8    3    4 1
     9    3   35 1
    10    3   36 1
    11    4    5 1
    12    4   37 1
    13    4   38 1
    14    5    6 1
    15    5   29 1
    16    5   30 1
    17    6   11 ar
    18    6    7 ar
    19    7    8 ar
    20    8    9 ar
    21    8   39 1
    22    9   20 1
    23    9   10 ar
    24   10   11 ar
    25   10   12 1
    26   11   40 1
    27   12   13 1
    28   13   18 ar
    29   13   14 ar
    30   14   15 ar
    31   14   41 1
    32   15   16 ar
    33   15   42 1
    34   16   17 ar
    35   16   43 1
    36   17   18 ar
    37   17   44 1
    38   18   19 1
    39   19   20 2
    40   20   21 1
    41   21   26 ar
    42   21   22 ar
    43   22   23 ar
    44   22   45 1
    45   23   24 ar
    46   23   46 1
    47   24   25 ar
    48   24   27 1
    49   25   26 ar
    50   25   47 1
    51   26   48 1
    52   27   28 2
    53   27   58 1
    54   29   49 1
    55   29   50 1
    56   29   51 1
    57   30   52 1
    58   30   53 1
    59   30   54 1
    60   31   55 1
    61   31   56 1
    62   31   57 1
@<TRIPOS>MOLECULE
ZINC12358651
   49    49     0     0     0
SMALL
USER_CHARGES

@<TRIPOS>ATOM
      1 C1         -2.0286   -1.1701   -2.0302 C.3       1 <0>        -0.1228
      2 C2         -0.9130   -0.9655   -1.0380 C.2       1 <0>        -0.1195
      3 C3         -1.0509   -0.0121   -0.1319 C.2       1 <0>        -0.0846
      4 C4         -0.0157    0.3046    0.9079 C.3       1 <0>        -0.0189
      5 C5          0.9697   -0.8582    1.0413 C.3       1 <0>        -0.1095
      6 C6          1.4613   -1.2436   -0.3593 C.3       1 <0>        -0.1215
      7 C7          0.2895   -1.8593   -1.1300 C.3       1 <0>        -0.0797
      8 C8         -0.7043    0.5427    2.2533 C.3       1 <0>        -0.1380
      9 C9          0.7436    1.5685    0.4993 C.3       1 <0>        -0.1378
     10 C10        -2.2434    0.7543   -0.1436 C.2       1 <0>        -0.1259
     11 C11        -3.4484    0.1381   -0.0202 C.2       1 <0>        -0.0971
     12 C12        -4.6247    0.9039    0.0582 C.2       1 <0>        -0.1171
     13 C13        -5.8350    0.2850    0.1820 C.2       1 <0>        -0.0909
     14 C14        -7.0080    1.0486    0.2602 C.2       1 <0>        -0.1590
     15 C15        -8.2286    0.4243    0.3851 C.2       1 <0>        -0.0727
     16 C16        -9.4006    1.1873    0.4632 C.2       1 <0>        -0.0846
     17 C17       -10.6211    0.5631    0.5882 C.2       1 <0>        -0.1309
     18 C18       -11.8049    1.3147    0.5138 C.2       1 <0>         0.4385
     19 O1        -11.7538    2.6103    0.2004 O.co2     1 <0>        -0.6898
     20 O2        -12.9805    0.7331    0.7567 O.co2     1 <0>        -0.7140
     21 C19        -9.3254    2.6915    0.4105 C.3       1 <0>        -0.1010
     22 C20        -4.5496    2.4081    0.0054 C.3       1 <0>        -0.1197
     23 H1         -1.7305   -1.9205   -2.7624 H         1 <0>         0.0534
     24 H2         -2.9229   -1.5082   -1.5068 H         1 <0>         0.0707
     25 H3         -2.2392   -0.2295   -2.5391 H         1 <0>         0.0657
     26 H4          1.8167   -0.5519    1.6552 H         1 <0>         0.0638
     27 H5          0.4699   -1.7107    1.5013 H         1 <0>         0.0637
     28 H6          1.8197   -0.3550   -0.8789 H         1 <0>         0.0667
     29 H7          2.2672   -1.9728   -0.2767 H         1 <0>         0.0625
     30 H8          0.0477   -2.8349   -0.7083 H         1 <0>         0.0717
     31 H9          0.5710   -1.9797   -2.1761 H         1 <0>         0.0688
     32 H10        -1.1790   -0.3801    2.5868 H         1 <0>         0.0541
     33 H11         0.0353    0.8575    2.9894 H         1 <0>         0.0532
     34 H12        -1.4600    1.3203    2.1420 H         1 <0>         0.0599
     35 H13         0.0450    2.4010    0.4154 H         1 <0>         0.0553
     36 H14         1.4959    1.8002    1.2533 H         1 <0>         0.0549
     37 H15         1.2309    1.4048   -0.4619 H         1 <0>         0.0560
     38 H16        -2.1943    1.8279   -0.2505 H         1 <0>         0.1163
     39 H17        -3.5023   -0.9399    0.0176 H         1 <0>         0.1126
     40 H18        -5.8889   -0.7930    0.2198 H         1 <0>         0.1099
     41 H19        -6.9541    2.1266    0.2224 H         1 <0>         0.1254
     42 H20        -8.2825   -0.6536    0.4229 H         1 <0>         0.1124
     43 H21       -10.6682   -0.5046    0.7433 H         1 <0>         0.1098
     44 H22        -9.4930    3.0280   -0.6126 H         1 <0>         0.0660
     45 H23       -10.0886    3.1165    1.0624 H         1 <0>         0.0952
     46 H24        -8.3402    3.0179    0.7436 H         1 <0>         0.0335
     47 H25        -4.6201    2.7393   -1.0307 H         1 <0>         0.0655
     48 H26        -5.3726    2.8334    0.5797 H         1 <0>         0.0686
     49 H27        -3.6015    2.7395    0.4291 H         1 <0>         0.0613
@<TRIPOS>BOND
     1    1    2 1
     2    1   23 1
     3    1   24 1
     4    1   25 1
     5    2    7 1
     6    2    3 2
     7    3    4 1
     8    3   10 1
     9    4    5 1
    10    4    8 1
    11    4    9 1
    12    5    6 1
    13    5   26 1
    14    5   27 1
    15    6    7 1
    16    6   28 1
    17    6   29 1
    18    7   30 1
    19    7   31 1
    20    8   32 1
    21    8   33 1
    22    8   34 1
    23    9   35 1
    24    9   36 1
    25    9   37 1
    26   10   11 2
    27   10   38 1
    28   11   12 1
    29   11   39 1
    30   12   13 2
    31   12   22 1
    32   13   14 1
    33   13   40 1
    34   14   15 2
    35   14   41 1
    36   15   16 1
    37   15   42 1
    38   16   17 2
    39   16   21 1
    40   17   18 1
    41   17   43 1
    42   18   19 2
    43   18   20 1
    44   21   44 1
    45   21   45 1
    46   21   46 1
    47   22   47 1
    48   22   48 1
    49   22   49 1
@<TRIPOS>MOLECULE
ZINC13522253
   63    63     0     0     0
SMALL
USER_CHARGES
(2E,4E,6Z)-7-[3,5-ditert-butyl-2-(2,2-difluoroethoxy)phenyl]-3-methyl-octa-2,4,6-trienoic acid
@<TRIPOS>ATOM
      1 C1         -3.8934    1.7062    6.6584 C.3       1 <0>        -0.0966
      2 C2         -4.9030    0.7856    6.0225 C.2       1 <0>        -0.0992
      3 C3         -6.1703    0.7179    6.5180 C.2       1 <0>        -0.1402
      4 C4         -6.5833    1.6168    7.5235 C.2       1 <0>         0.4642
      5 O1         -5.8476    2.5229    7.8696 O.co2     1 <0>        -0.6252
      6 C5         -4.5374   -0.0027    4.9188 C.2       1 <0>        -0.0716
      7 C6         -3.2699    0.0650    4.4232 C.2       1 <0>        -0.1624
      8 C7         -2.9035   -0.7251    3.3170 C.2       1 <0>        -0.1034
      9 C8         -1.6423   -0.6577    2.8239 C.2       1 <0>        -0.0978
     10 C9         -1.2501   -1.5034    1.6398 C.3       1 <0>        -0.1033
     11 C10        -0.6590    0.2389    3.4433 C.ar      1 <0>        -0.0531
     12 C11        -0.0615   -0.1046    4.6620 C.ar      1 <0>        -0.0999
     13 C12         0.8565    0.7447    5.2394 C.ar      1 <0>        -0.0672
     14 C13         1.1958    1.9356    4.6174 C.ar      1 <0>        -0.1077
     15 C14         0.6178    2.2856    3.4120 C.ar      1 <0>        -0.0745
     16 C15        -0.3076    1.4452    2.8148 C.ar      1 <0>         0.0985
     17 O2         -0.8761    1.7883    1.6311 O.3       1 <0>        -0.3078
     18 C16        -2.2212    2.2691    1.6726 C.3       1 <0>        -0.0010
     19 C17        -2.6365    2.7434    0.2786 C.3       1 <0>         0.2719
     20 F1         -1.7856    3.7735   -0.1363 F         1 <0>        -0.1982
     21 F2         -2.5503    1.6762   -0.6220 F         1 <0>        -0.1979
     22 C18         0.9953    3.5835    2.7457 C.3       1 <0>        -0.0193
     23 C19         2.1273    4.2494    3.5305 C.3       1 <0>        -0.1441
     24 C20         1.4613    3.3057    1.3151 C.3       1 <0>        -0.1391
     25 C21        -0.2195    4.5131    2.7149 C.3       1 <0>        -0.1509
     26 C22         1.4952    0.3768    6.5538 C.3       1 <0>        -0.0274
     27 C23         1.1687    1.4473    7.5970 C.3       1 <0>        -0.1407
     28 C24         0.9535   -0.9749    7.0234 C.3       1 <0>        -0.1463
     29 C25         3.0120    0.2842    6.3755 C.3       1 <0>        -0.1368
     30 H1         -4.0046    2.7086    6.2448 H         1 <0>         0.0613
     31 H2         -4.0578    1.7372    7.7355 H         1 <0>         0.0882
     32 H3         -2.8876    1.3386    6.4548 H         1 <0>         0.0354
     33 H4         -6.8587   -0.0239    6.1410 H         1 <0>         0.1049
     34 H5         -5.2609   -0.6624    4.4631 H         1 <0>         0.1107
     35 H6         -2.5464    0.7247    4.8789 H         1 <0>         0.1205
     36 H7         -3.6270   -1.3848    2.8613 H         1 <0>         0.1155
     37 H8         -0.9515   -2.4938    1.9837 H         1 <0>         0.0646
     38 H9         -2.0985   -1.5948    0.9616 H         1 <0>         0.0643
     39 H10        -0.4166   -1.0335    1.1178 H         1 <0>         0.0643
     40 H11        -0.3229   -1.0317    5.1504 H         1 <0>         0.1308
     41 H12         1.9166    2.5949    5.0781 H         1 <0>         0.1292
     42 H13        -2.2883    3.1005    2.3743 H         1 <0>         0.0903
     43 H14        -2.8841    1.4665    1.9958 H         1 <0>         0.0921
     44 H15        -3.6624    3.1101    0.3102 H         1 <0>         0.1258
     45 H16         2.9927    3.5872    3.5525 H         1 <0>         0.0564
     46 H17         2.4003    5.1882    3.0485 H         1 <0>         0.0572
     47 H18         1.7953    4.4474    4.5497 H         1 <0>         0.0578
     48 H19         0.6247    2.9276    0.7275 H         1 <0>         0.0777
     49 H20         1.8318    4.2281    0.8681 H         1 <0>         0.0508
     50 H21         2.2593    2.5633    1.3306 H         1 <0>         0.0485
     51 H22        -0.5515    4.7110    3.7340 H         1 <0>         0.0543
     52 H23         0.0535    5.4519    2.2329 H         1 <0>         0.0583
     53 H24        -1.0260    4.0387    2.1557 H         1 <0>         0.0662
     54 H25         0.0882    1.5133    7.7240 H         1 <0>         0.0614
     55 H26         1.6308    1.1812    8.5476 H         1 <0>         0.0579
     56 H27         1.5547    2.4103    7.2624 H         1 <0>         0.0557
     57 H28         1.1861   -1.7376    6.2803 H         1 <0>         0.0572
     58 H29         1.4155   -1.2410    7.9741 H         1 <0>         0.0578
     59 H30        -0.1270   -0.9089    7.1504 H         1 <0>         0.0624
     60 H31         3.3979    1.2471    6.0410 H         1 <0>         0.0556
     61 H32         3.4740    0.0181    7.3262 H         1 <0>         0.0574
     62 H33         3.2446   -0.4785    5.6324 H         1 <0>         0.0551
     63 O3         -7.7947    1.4722    8.1023 O.co2     1 <0>        -0.7691
@<TRIPOS>BOND
     1    1    2 1
     2    1   30 1
     3    1   31 1
     4    1   32 1
     5    2    3 2
     6    2    6 1
     7    3    4 1
     8    3   33 1
     9    4    5 2
    10    4   63 1
    11    6    7 2
    12    6   34 1
    13    7    8 1
    14    7   35 1
    15    8    9 2
    16    8   36 1
    17    9   10 1
    18    9   11 1
    19   10   37 1
    20   10   38 1
    21   10   39 1
    22   11   16 ar
    23   11   12 ar
    24   12   13 ar
    25   12   40 1
    26   13   14 ar
    27   13   26 1
    28   14   15 ar
    29   14   41 1
    30   15   16 ar
    31   15   22 1
    32   16   17 1
    33   17   18 1
    34   18   19 1
    35   18   42 1
    36   18   43 1
    37   19   20 1
    38   19   21 1
    39   19   44 1
    40   22   23 1
    41   22   24 1
    42   22   25 1
    43   23   45 1
    44   23   46 1
    45   23   47 1
    46   24   48 1
    47   24   49 1
    48   24   50 1
    49   25   51 1
    50   25   52 1
    51   25   53 1
    52   26   27 1
    53   26   28 1
    54   26   29 1
    55   27   54 1
    56   27   55 1
    57   27   56 1
    58   28   57 1
    59   28   58 1
    60   28   59 1
    61   29   60 1
    62   29   61 1
    63   29   62 1
@<TRIPOS>MOLECULE
ZINC01550770
   57    59     0     0     0
SMALL
USER_CHARGES
3-methyl-5-[2-methyl-2-(5,5,8,8-tetramethyltetralin-2-yl)-cyclopropyl]-penta-2,4-dienoic acid
@<TRIPOS>ATOM
      1 C1          0.6153    5.3961    5.9905 C.3       1 <0>        -0.0953
      2 C2          1.6881    6.3574    5.5475 C.2       1 <0>        -0.0845
      3 C3          2.9226    6.2934    6.0973 C.2       1 <0>        -0.1636
      4 C4          3.2634    5.2140    6.9510 C.2       1 <0>         0.4695
      5 O1          2.4645    4.3179    7.1471 O.co2     1 <0>        -0.6292
      6 C5          1.3946    7.3597    4.5231 C.2       1 <0>        -0.1012
      7 C6          0.1769    7.4227    3.9809 C.2       1 <0>        -0.1333
      8 C7         -0.1254    8.4552    2.9256 C.3       1 <0>        -0.1016
      9 H1          0.5451    9.3142    2.9023 H         1 <0>         0.1073
     10 C8         -1.5947    8.6961    2.5734 C.3       1 <0>        -0.1612
     11 C9         -0.6836    7.9583    1.5905 C.3       1 <0>        -0.0829
     12 C10        -0.2582    8.7050    0.3246 C.3       1 <0>        -0.1085
     13 C11        -0.8889    6.4738    1.4314 C.ar      1 <0>        -0.0443
     14 C12         0.1755    5.6055    1.5890 C.ar      1 <0>        -0.0973
     15 C13        -0.0199    4.2483    1.4392 C.ar      1 <0>        -0.1149
     16 C14        -1.2778    3.7458    1.1311 C.ar      1 <0>        -0.0633
     17 C15        -2.3383    4.6101    0.9782 C.ar      1 <0>        -0.0665
     18 C16        -2.1391    5.9767    1.1276 C.ar      1 <0>        -0.1110
     19 C17        -3.7305    4.1357    0.6530 C.3       1 <0>        -0.0211
     20 C18        -3.6978    2.7102    0.1058 C.3       1 <0>        -0.1102
     21 C19        -2.8858    1.8409    1.0720 C.3       1 <0>        -0.1117
     22 C20        -1.4185    2.2541    0.9765 C.3       1 <0>        -0.0225
     23 C21        -0.8637    1.8336   -0.3860 C.3       1 <0>        -0.1377
     24 C22        -0.6246    1.5551    2.0820 C.3       1 <0>        -0.1444
     25 C23        -4.5844    4.1696    1.9221 C.3       1 <0>        -0.1394
     26 C24        -4.3481    5.0643   -0.3945 C.3       1 <0>        -0.1402
     27 H2          0.7131    4.4623    5.4369 H         1 <0>         0.0623
     28 H3          0.7220    5.1990    7.0572 H         1 <0>         0.0883
     29 H4         -0.3650    5.8318    5.7978 H         1 <0>         0.0325
     30 H5          3.6485    7.0647    5.8858 H         1 <0>         0.1013
     31 H6          2.1634    8.0486    4.2056 H         1 <0>         0.1082
     32 H7         -0.5919    6.7338    4.2983 H         1 <0>         0.1154
     33 H8         -1.8909    9.7137    2.3185 H         1 <0>         0.0956
     34 H9         -2.3429    8.1079    3.1048 H         1 <0>         0.0949
     35 H10        -0.7304    8.2460   -0.5440 H         1 <0>         0.0599
     36 H11        -0.5666    9.7479    0.3971 H         1 <0>         0.0583
     37 H12         0.8254    8.6531    0.2189 H         1 <0>         0.0604
     38 H13         1.1563    5.9885    1.8289 H         1 <0>         0.1200
     39 H14         0.8121    3.5707    1.5622 H         1 <0>         0.1209
     40 H15        -2.9700    6.6556    1.0046 H         1 <0>         0.1177
     41 H16        -4.7138    2.3230    0.0287 H         1 <0>         0.0641
     42 H17        -3.2268    2.7049   -0.8772 H         1 <0>         0.0672
     43 H18        -2.9903    0.7915    0.7966 H         1 <0>         0.0649
     44 H19        -3.2439    1.9912    2.0904 H         1 <0>         0.0692
     45 H20        -0.9551    0.7532   -0.4977 H         1 <0>         0.0560
     46 H21         0.1863    2.1183   -0.4543 H         1 <0>         0.0558
     47 H22        -1.4268    2.3296   -1.1764 H         1 <0>         0.0559
     48 H23         0.4251    1.8402    2.0112 H         1 <0>         0.0608
     49 H24        -1.0171    1.8523    3.0545 H         1 <0>         0.0590
     50 H25        -0.7163    0.4750    1.9678 H         1 <0>         0.0561
     51 H26        -4.6260    5.1893    2.3050 H         1 <0>         0.0553
     52 H27        -5.5929    3.8269    1.6907 H         1 <0>         0.0554
     53 H28        -4.1425    3.5166    2.6748 H         1 <0>         0.0593
     54 H29        -3.7374    5.0507   -1.2973 H         1 <0>         0.0547
     55 H30        -5.3560    4.7241   -0.6325 H         1 <0>         0.0551
     56 H31        -4.3909    6.0795   -0.0001 H         1 <0>         0.0580
     57 O2          4.4740    5.1807    7.5461 O.co2     1 <0>        -0.7734
@<TRIPOS>BOND
     1    1    2 1
     2    1   27 1
     3    1   28 1
     4    1   29 1
     5    2    3 2
     6    2    6 1
     7    3    4 1
     8    3   30 1
     9    4    5 2
    10    4   57 1
    11    6    7 2
    12    6   31 1
    13    7    8 1
    14    7   32 1
    15    8    9 1
    16    8   11 1
    17    8   10 1
    18   10   11 1
    19   10   33 1
    20   10   34 1
    21   11   12 1
    22   11   13 1
    23   12   35 1
    24   12   36 1
    25   12   37 1
    26   13   18 ar
    27   13   14 ar
    28   14   15 ar
    29   14   38 1
    30   15   16 ar
    31   15   39 1
    32   16   22 1
    33   16   17 ar
    34   17   18 ar
    35   17   19 1
    36   18   40 1
    37   19   20 1
    38   19   25 1
    39   19   26 1
    40   20   21 1
    41   20   41 1
    42   20   42 1
    43   21   22 1
    44   21   43 1
    45   21   44 1
    46   22   23 1
    47   22   24 1
    48   23   45 1
    49   23   46 1
    50   23   47 1
    51   24   48 1
    52   24   49 1
    53   24   50 1
    54   25   51 1
    55   25   52 1
    56   25   53 1
    57   26   54 1
    58   26   55 1
    59   26   56 1
@<TRIPOS>MOLECULE
ZINC12661824
   49    49     0     0     0
SMALL
USER_CHARGES

@<TRIPOS>ATOM
      1 C1         -2.1403   -2.1286   -2.0604 C.3       1 <0>        -0.1245
      2 C2         -0.9727   -2.0739   -1.1091 C.2       1 <0>        -0.1129
      3 C3         -0.9348   -1.0922   -0.2237 C.2       1 <0>        -0.0907
      4 C4          0.1717   -0.9136    0.7747 C.3       1 <0>        -0.0176
      5 C5          0.9760   -2.2085    0.9067 C.3       1 <0>        -0.1106
      6 C6          1.3553   -2.6920   -0.4984 C.3       1 <0>        -0.1204
      7 C7          0.0785   -3.1400   -1.2161 C.3       1 <0>        -0.0819
      8 C8         -0.4263   -0.5472    2.1345 C.3       1 <0>        -0.1381
      9 C9          1.0969    0.2131    0.3104 C.3       1 <0>        -0.1367
     10 C10        -1.9989   -0.1556   -0.2175 C.2       1 <0>        -0.1221
     11 C11        -3.2775   -0.5809   -0.0407 C.2       1 <0>        -0.1037
     12 C12        -4.3225    0.3546    0.0550 C.2       1 <0>        -0.1163
     13 C13        -5.6067   -0.0726    0.2326 C.2       1 <0>        -0.0923
     14 C14        -5.8834   -1.4441    0.3196 C.2       1 <0>        -0.1580
     15 C15        -7.1787   -1.8749    0.4988 C.2       1 <0>        -0.0749
     16 C16        -7.4552   -3.2452    0.5857 C.2       1 <0>        -0.0835
     17 C17        -8.7503   -3.6760    0.7648 C.2       1 <0>        -0.1321
     18 C18        -9.0115   -5.0348    1.0038 C.2       1 <0>         0.4387
     19 O1         -8.0008   -5.8874    1.1796 O.co2     1 <0>        -0.6899
     20 O2        -10.2703   -5.4730    1.0550 O.co2     1 <0>        -0.7144
     21 C19        -6.3349   -4.2479    0.4831 C.3       1 <0>        -0.1004
     22 C20        -4.0250    1.8289   -0.0385 C.3       1 <0>        -0.1133
     23 H1         -1.9836   -2.9301   -2.7822 H         1 <0>         0.0553
     24 H2         -3.0564   -2.3176   -1.5007 H         1 <0>         0.0727
     25 H3         -2.2254   -1.1776   -2.5862 H         1 <0>         0.0643
     26 H4          1.8802   -2.0205    1.4857 H         1 <0>         0.0632
     27 H5          0.3706   -2.9665    1.4037 H         1 <0>         0.0655
     28 H6          1.8243   -1.8782   -1.0514 H         1 <0>         0.0655
     29 H7          2.0454   -3.5322   -0.4225 H         1 <0>         0.0627
     30 H8         -0.2918   -4.0593   -0.7623 H         1 <0>         0.0747
     31 H9          0.3022   -3.3228   -2.2671 H         1 <0>         0.0693
     32 H10        -1.0218   -1.3811    2.5062 H         1 <0>         0.0559
     33 H11         0.3773   -0.3322    2.8388 H         1 <0>         0.0525
     34 H12        -1.0605    0.3328    2.0273 H         1 <0>         0.0582
     35 H13         0.5282    1.1392    0.2273 H         1 <0>         0.0537
     36 H14         1.9012    0.3443    1.0343 H         1 <0>         0.0541
     37 H15         1.5204   -0.0417   -0.6611 H         1 <0>         0.0558
     38 H16        -1.7935    0.8960   -0.3533 H         1 <0>         0.1138
     39 H17        -3.4907   -1.6375    0.0264 H         1 <0>         0.1201
     40 H18        -6.4095    0.6460    0.3061 H         1 <0>         0.1118
     41 H19        -5.0806   -2.1627    0.2461 H         1 <0>         0.1227
     42 H20        -7.9815   -1.1563    0.5723 H         1 <0>         0.1127
     43 H21        -9.5654   -2.9688    0.7215 H         1 <0>         0.1096
     44 H22        -6.0017   -4.5241    1.4835 H         1 <0>         0.0657
     45 H23        -6.6891   -5.1362   -0.0400 H         1 <0>         0.0953
     46 H24        -5.5036   -3.8088   -0.0684 H         1 <0>         0.0323
     47 H25        -4.0813    2.1456   -1.0800 H         1 <0>         0.0639
     48 H26        -4.7546    2.3849    0.5502 H         1 <0>         0.0612
     49 H27        -3.0238    2.0227    0.3466 H         1 <0>         0.0630
@<TRIPOS>BOND
     1    1    2 1
     2    1   23 1
     3    1   24 1
     4    1   25 1
     5    2    7 1
     6    2    3 2
     7    3    4 1
     8    3   10 1
     9    4    5 1
    10    4    8 1
    11    4    9 1
    12    5    6 1
    13    5   26 1
    14    5   27 1
    15    6    7 1
    16    6   28 1
    17    6   29 1
    18    7   30 1
    19    7   31 1
    20    8   32 1
    21    8   33 1
    22    8   34 1
    23    9   35 1
    24    9   36 1
    25    9   37 1
    26   10   11 2
    27   10   38 1
    28   11   12 1
    29   11   39 1
    30   12   13 2
    31   12   22 1
    32   13   14 1
    33   13   40 1
    34   14   15 2
    35   14   41 1
    36   15   16 1
    37   15   42 1
    38   16   17 2
    39   16   21 1
    40   17   18 1
    41   17   43 1
    42   18   19 2
    43   18   20 1
    44   21   44 1
    45   21   45 1
    46   21   46 1
    47   22   47 1
    48   22   48 1
    49   22   49 1
@<TRIPOS>MOLECULE
ZINC03834070
   51    53     0     0     0
SMALL
USER_CHARGES
4-(3,5,5,8,8-pentamethyltetralin-2-yl)carbonylbenzoic acid
@<TRIPOS>ATOM
      1 C1          0.9542   -2.5407    0.0014 C.3       1 <0>        -0.1229
      2 C2          1.1623   -1.0498    0.0728 C.ar      1 <0>        -0.0506
      3 C3          2.4094   -0.5374    0.3493 C.ar      1 <0>        -0.1203
      4 C4          2.6146    0.8363    0.4192 C.ar      1 <0>        -0.0474
      5 C5          1.5622    1.7010    0.2029 C.ar      1 <0>        -0.0692
      6 C6          0.3015    1.1970   -0.0737 C.ar      1 <0>        -0.0796
      7 C7          0.0905   -0.1797   -0.1410 C.ar      1 <0>        -0.1389
      8 C8         -1.2549   -0.7136   -0.4353 C.2       1 <0>         0.4514
      9 O1         -2.1123   -0.7087    0.4259 O.2       1 <0>        -0.4532
     10 C9         -1.5587   -1.2541   -1.7785 C.ar      1 <0>        -0.1784
     11 C10        -0.6141   -1.1528   -2.8021 C.ar      1 <0>        -0.0815
     12 C11        -0.8948   -1.6618   -4.0513 C.ar      1 <0>        -0.0935
     13 C12        -2.1284   -2.2679   -4.2972 C.ar      1 <0>        -0.0751
     14 C13        -3.0751   -2.3641   -3.2755 C.ar      1 <0>        -0.1024
     15 C14        -2.7923   -1.8607   -2.0245 C.ar      1 <0>        -0.0756
     16 C15        -2.4321   -2.8084   -5.6402 C.2       1 <0>         0.4850
     17 O2         -3.5049   -3.3359   -5.8541 O.co2     1 <0>        -0.6247
     18 C16         1.7215    3.1985    0.2471 C.3       1 <0>        -0.0218
     19 C17         3.0087    3.5804    0.9749 C.3       1 <0>        -0.1106
     20 C18         4.1668    2.7882    0.3569 C.3       1 <0>        -0.1120
     21 C19         4.0051    1.3190    0.7420 C.3       1 <0>        -0.0239
     22 C20         4.2591    1.1586    2.2422 C.3       1 <0>        -0.1388
     23 C21         5.0230    0.4804   -0.0335 C.3       1 <0>        -0.1430
     24 C22         1.7693    3.7432   -1.1818 C.3       1 <0>        -0.1412
     25 C23         0.5266    3.8116    0.9801 C.3       1 <0>        -0.1439
     26 H1          1.0267   -2.8685   -1.0356 H         1 <0>         0.0813
     27 H2          1.7177   -3.0430    0.5954 H         1 <0>         0.0695
     28 H3         -0.0323   -2.7890    0.3929 H         1 <0>         0.0656
     29 H4          3.2382   -1.2100    0.5143 H         1 <0>         0.1266
     30 H5         -0.5221    1.8748   -0.2427 H         1 <0>         0.1252
     31 H6          0.3381   -0.6794   -2.6133 H         1 <0>         0.1232
     32 H7         -0.1623   -1.5881   -4.8415 H         1 <0>         0.1368
     33 H8         -4.0290   -2.8336   -3.4657 H         1 <0>         0.1340
     34 H9         -3.5245   -1.9355   -1.2342 H         1 <0>         0.1273
     35 H10         3.1922    4.6487    0.8602 H         1 <0>         0.0670
     36 H11         2.9188    3.3350    2.0331 H         1 <0>         0.0683
     37 H12         4.1424    2.8887   -0.7282 H         1 <0>         0.0706
     38 H13         5.1151    3.1660    0.7392 H         1 <0>         0.0666
     39 H14         4.1643    0.1079    2.5165 H         1 <0>         0.0562
     40 H15         5.2642    1.5068    2.4799 H         1 <0>         0.0578
     41 H16         3.5297    1.7467    2.7992 H         1 <0>         0.0582
     42 H17         4.8395    0.5838   -1.1030 H         1 <0>         0.0587
     43 H18         6.0304    0.8266    0.1974 H         1 <0>         0.0576
     44 H19         4.9242   -0.5668    0.2525 H         1 <0>         0.0593
     45 H20         0.8437    3.4894   -1.6985 H         1 <0>         0.0581
     46 H21         1.8846    4.8267   -1.1540 H         1 <0>         0.0581
     47 H22         2.6137    3.3014   -1.7110 H         1 <0>         0.0596
     48 H23         0.4830    3.4187    1.9959 H         1 <0>         0.0566
     49 H24         0.6383    4.8953    1.0142 H         1 <0>         0.0583
     50 H25        -0.3927    3.5575    0.4524 H         1 <0>         0.0594
     51 O3         -1.5189   -2.7156   -6.6259 O.co2     1 <0>        -0.7477
@<TRIPOS>BOND
     1    1    2 1
     2    1   26 1
     3    1   27 1
     4    1   28 1
     5    2    7 ar
     6    2    3 ar
     7    3    4 ar
     8    3   29 1
     9    4   21 1
    10    4    5 ar
    11    5    6 ar
    12    5   18 1
    13    6    7 ar
    14    6   30 1
    15    7    8 1
    16    8    9 2
    17    8   10 1
    18   10   15 ar
    19   10   11 ar
    20   11   12 ar
    21   11   31 1
    22   12   13 ar
    23   12   32 1
    24   13   14 ar
    25   13   16 1
    26   14   15 ar
    27   14   33 1
    28   15   34 1
    29   16   17 2
    30   16   51 1
    31   18   19 1
    32   18   24 1
    33   18   25 1
    34   19   20 1
    35   19   35 1
    36   19   36 1
    37   20   21 1
    38   20   37 1
    39   20   38 1
    40   21   22 1
    41   21   23 1
    42   22   39 1
    43   22   40 1
    44   22   41 1
    45   23   42 1
    46   23   43 1
    47   23   44 1
    48   24   45 1
    49   24   46 1
    50   24   47 1
    51   25   48 1
    52   25   49 1
    53   25   50 1
