@<TRIPOS>MOLECULE
ZINC02568036
   33    35     0     0     0
SMALL
USER_CHARGES

@<TRIPOS>ATOM
      1 C1         -0.0172    1.4047    0.0101 C.ar      1 <0>        -0.1104
      2 C2          1.1635    2.1012    0.0034 C.ar      1 <0>        -0.0392
      3 C3          2.3742    1.4240   -0.0136 C.ar      1 <0>        -0.0119
      4 C4          2.4052    0.0371   -0.0241 C.ar      1 <0>        -0.0397
      5 C5          1.2367   -0.6798   -0.0177 C.ar      1 <0>        -0.1053
      6 C6          0.0021   -0.0032   -0.0005 C.ar      1 <0>         0.0468
      7 C7         -1.2124   -0.7339    0.0067 C.2       1 <0>        -0.0050
      8 C8         -1.3170   -2.1470    0.0031 C.2       1 <0>        -0.1437
      9 C9         -2.6376   -2.4596    0.0133 C.2       1 <0>        -0.1454
     10 C10        -3.3652   -1.1809    0.0234 C.2       1 <0>         0.0301
     11 O1         -2.4428   -0.1937    0.0239 O.3       1 <0>        -0.1149
     12 C11        -4.7435   -1.0188    0.0356 C.2       1 <0>         0.0862
     13 N1         -5.2686    0.2010    0.0439 N.2       1 <0>        -0.1763
     14 N2         -6.5466    0.3537   -0.0430 N.am      1 <0>        -0.4203
     15 C12        -7.5623   -0.7132   -0.0448 C.3       1 <0>         0.0031
     16 C13        -8.8713    0.0414   -0.1668 C.2       1 <0>         0.5361
     17 O2         -9.9874   -0.4303   -0.2075 O.2       1 <0>        -0.4492
     18 N3         -8.5364    1.3457   -0.2197 N.am      1 <0>        -0.6703
     19 C14        -7.2119    1.5186   -0.1438 C.2       1 <0>         0.7211
     20 O3         -6.6706    2.6054   -0.1665 O.2       1 <0>        -0.4876
     21 N4          3.6426    2.1872   -0.0211 N.pl3     1 <0>        -0.0197
     22 O4          3.6190    3.5039   -0.0116 O.2       1 <0>        -0.1693
     23 O5          4.7948    1.5493   -0.0372 O.3       1 <0>        -0.1693
     24 H1         -0.9586    1.9338    0.0278 H         1 <0>         0.1553
     25 H2          1.1512    3.1811    0.0111 H         1 <0>         0.1604
     26 H3          3.3534   -0.4797   -0.0377 H         1 <0>         0.1623
     27 H4          1.2631   -1.7594   -0.0263 H         1 <0>         0.1564
     28 H5         -0.4953   -2.8477   -0.0061 H         1 <0>         0.1670
     29 H6         -3.0687   -3.4498    0.0134 H         1 <0>         0.1709
     30 H7         -5.3890   -1.8847    0.0383 H         1 <0>         0.1588
     31 H8         -7.4208   -1.3760   -0.8985 H         1 <0>         0.1396
     32 H9         -7.5294   -1.2757    0.8883 H         1 <0>         0.1392
     33 H10        -9.1768    2.0699   -0.2997 H         1 <0>         0.4440
@<TRIPOS>BOND
     1    1    6 ar
     2    1    2 ar
     3    1   24 1
     4    2    3 ar
     5    2   25 1
     6    3    4 ar
     7    3   21 1
     8    4    5 ar
     9    4   26 1
    10    5    6 ar
    11    5   27 1
    12    6    7 1
    13    7   11 1
    14    7    8 2
    15    8    9 1
    16    8   28 1
    17    9   10 2
    18    9   29 1
    19   10   11 1
    20   10   12 1
    21   12   13 2
    22   12   30 1
    23   13   14 1
    24   14   19 am
    25   14   15 1
    26   15   16 1
    27   15   31 1
    28   15   32 1
    29   16   17 2
    30   16   18 am
    31   18   19 am
    32   18   33 1
    33   19   20 2
    34   21   22 2
    35   21   23 1
@<TRIPOS>MOLECULE
ZINC02568036
   32    34     0     0     0
SMALL
USER_CHARGES

@<TRIPOS>ATOM
      1 C1         -0.0172    1.4045    0.0101 C.ar      1 <0>        -0.1259
      2 C2          1.1636    2.1010    0.0034 C.ar      1 <0>        -0.0327
      3 C3          2.3742    1.4239   -0.0136 C.ar      1 <0>        -0.0327
      4 C4          2.4051    0.0371   -0.0240 C.ar      1 <0>        -0.0347
      5 C5          1.2366   -0.6798   -0.0180 C.ar      1 <0>        -0.1242
      6 C6          0.0021   -0.0032   -0.0004 C.ar      1 <0>         0.0787
      7 C7         -1.2126   -0.7340    0.0068 C.2       1 <0>        -0.0685
      8 C8         -1.3171   -2.1467    0.0033 C.2       1 <0>        -0.1190
      9 C9         -2.6378   -2.4595    0.0134 C.2       1 <0>        -0.1994
     10 C10        -3.3654   -1.1809    0.0235 C.2       1 <0>         0.1141
     11 O1         -2.4429   -0.1937    0.0239 O.3       1 <0>        -0.1228
     12 C11        -4.7433   -1.0189    0.0350 C.2       1 <0>        -0.0262
     13 N1         -5.2686    0.2015    0.0433 N.2       1 <0>        -0.1234
     14 N2         -6.5465    0.3542   -0.0442 N.am      1 <0>        -0.4272
     15 C12        -7.5705   -0.7065   -0.0476 C.3       1 <0>        -0.0150
     16 C13        -8.8705    0.0630   -0.1703 C.2       1 <0>         0.4649
     17 O2        -10.1101   -0.4502   -0.2169 O.3       1 <0>        -0.6201
     18 N3         -8.5418    1.3266   -0.2208 N.2       1 <0>        -0.6477
     19 C14        -7.2209    1.5159   -0.1453 C.2       1 <0>         0.6655
     20 O3         -6.6894    2.6096   -0.1680 O.2       1 <0>        -0.5351
     21 N4          3.6426    2.1870   -0.0211 N.pl3     1 <0>        -0.0100
     22 O4          3.6190    3.5038   -0.0117 O.2       1 <0>        -0.1829
     23 O5          4.7948    1.5492   -0.0372 O.3       1 <0>        -0.1857
     24 H1         -0.9586    1.9336    0.0278 H         1 <0>         0.1545
     25 H2          1.1512    3.1809    0.0110 H         1 <0>         0.1564
     26 H3          3.3533   -0.4798   -0.0372 H         1 <0>         0.1568
     27 H4          1.2629   -1.7594   -0.0269 H         1 <0>         0.1523
     28 H5         -0.4954   -2.8475   -0.0064 H         1 <0>         0.1596
     29 H6         -3.0688   -3.4498    0.0136 H         1 <0>         0.1642
     30 H7         -5.3888   -1.8847    0.0372 H         1 <0>         0.1509
     31 H8         -7.4343   -1.3695   -0.9020 H         1 <0>         0.1080
     32 H9         -7.5438   -1.2695    0.8853 H         1 <0>         0.1075
@<TRIPOS>BOND
     1    1    6 ar
     2    1    2 ar
     3    1   24 1
     4    2    3 ar
     5    2   25 1
     6    3    4 ar
     7    3   21 1
     8    4    5 ar
     9    4   26 1
    10    5    6 ar
    11    5   27 1
    12    6    7 1
    13    7   11 1
    14    7    8 2
    15    8    9 1
    16    8   28 1
    17    9   10 2
    18    9   29 1
    19   10   11 1
    20   10   12 1
    21   12   13 2
    22   12   30 1
    23   13   14 1
    24   14   19 am
    25   14   15 1
    26   15   16 1
    27   15   31 1
    28   15   32 1
    29   16   17 1
    30   16   18 2
    31   18   19 1
    32   19   20 2
    33   21   22 2
    34   21   23 1
