@<TRIPOS>MOLECULE
ZINC01569733
   30    30     0     0     0
SMALL
USER_CHARGES
2-(2-amino-3-phenyl-propanoyl)aminoacetic acid
@<TRIPOS>ATOM
      1 C1          1.1563    3.1654    0.0076 C.ar      1 <0>        -0.1061
      2 C2          1.1750    1.7832    0.0004 C.ar      1 <0>        -0.1094
      3 C3         -0.0126    1.0758    0.0080 C.ar      1 <0>        -0.1416
      4 C4         -1.2190    1.7506    0.0173 C.ar      1 <0>        -0.1228
      5 C5         -1.2377    3.1328    0.0299 C.ar      1 <0>        -0.1018
      6 C6         -0.0501    3.8402    0.0223 C.ar      1 <0>        -0.1052
      7 C7         -2.5137    0.9795    0.0193 C.3       1 <0>        -0.0963
      8 C8         -2.9450    0.7107    1.4624 C.3       1 <0>         0.0192
      9 H1         -2.9998    1.6534    2.0069 H         1 <0>         0.1620
     10 C9         -4.2988    0.0485    1.4671 C.2       1 <0>         0.4900
     11 O1         -4.3860   -1.1522    1.6140 O.2       1 <0>        -0.5425
     12 N1         -5.4125    0.7906    1.3080 N.am      1 <0>        -0.6667
     13 C10        -6.7285    0.1469    1.3125 C.3       1 <0>         0.0685
     14 C11        -7.7986    1.1900    1.1179 C.2       1 <0>         0.4563
     15 O2         -7.4933    2.3519    0.9887 O.co2     1 <0>        -0.6333
     16 H2          2.0841    3.7181    0.0014 H         1 <0>         0.1303
     17 H3          2.1175    1.2560   -0.0115 H         1 <0>         0.1305
     18 H4          0.0021   -0.0041    0.0020 H         1 <0>         0.1238
     19 H5         -2.1802    3.6600    0.0410 H         1 <0>         0.1347
     20 H6         -0.0647    4.9201    0.0276 H         1 <0>         0.1326
     21 H7         -3.2837    1.5610   -0.4877 H         1 <0>         0.1277
     22 H8         -2.3729    0.0317   -0.5003 H         1 <0>         0.1063
     23 H9         -5.3427    1.7510    1.1905 H         1 <0>         0.4161
     24 H10        -6.7795   -0.5813    0.5031 H         1 <0>         0.0863
     25 H11        -6.8826   -0.3582    2.2660 H         1 <0>         0.0859
     26 H12        -2.1934   -0.3133    3.0826 H         1 <0>         0.4414
     27 H13        -1.8965   -1.0537    1.6233 H         1 <0>         0.4411
     28 O3         -9.0909    0.8283    1.0881 O.co2     1 <0>        -0.7372
     29 N2         -1.9448   -0.1585    2.1070 N.4       1 <0>        -0.6281
     30 H14        -1.0249    0.2957    2.0637 H         1 <0>         0.4381
@<TRIPOS>BOND
     1    1    6 ar
     2    1    2 ar
     3    1   16 1
     4    2    3 ar
     5    2   17 1
     6    3    4 ar
     7    3   18 1
     8    4    5 ar
     9    4    7 1
    10    5    6 ar
    11    5   19 1
    12    6   20 1
    13    7    8 1
    14    7   21 1
    15    7   22 1
    16    8    9 1
    17    8   10 1
    18    8   29 1
    19   10   11 2
    20   10   12 am
    21   12   13 1
    22   12   23 1
    23   13   14 1
    24   13   24 1
    25   13   25 1
    26   14   15 2
    27   14   28 1
    28   26   29 1
    29   27   29 1
    30   29   30 1
@<TRIPOS>MOLECULE
ZINC01605731
   33    33     0     0     0
SMALL
USER_CHARGES
2-(2-amino-3-phenyl-propanoyl)aminopropanoic acid
@<TRIPOS>ATOM
      1 C1         -1.9209    0.8446   -4.0812 C.3       1 <0>        -0.1402
      2 C2         -2.5622    1.4392   -2.8258 C.3       1 <0>         0.0894
      3 H1         -2.5004    2.5267   -2.8664 H         1 <0>         0.0985
      4 C3         -4.0080    1.0204   -2.7538 C.2       1 <0>         0.4608
      5 O1         -4.4058    0.3821   -1.8082 O.co2     1 <0>        -0.6330
      6 N1         -1.8536    0.9539   -1.6389 N.am      1 <0>        -0.6625
      7 C4         -0.7416    1.5850   -1.2129 C.2       1 <0>         0.4926
      8 O2         -0.3275    2.5548   -1.8121 O.2       1 <0>        -0.5419
      9 C5         -0.0127    1.0858    0.0080 C.3       1 <0>         0.0193
     10 H2          0.0021   -0.0041    0.0020 H         1 <0>         0.1609
     11 C6         -0.7288    1.5792    1.2668 C.3       1 <0>        -0.0974
     12 C7         -0.0738    0.9805    2.4848 C.ar      1 <0>        -0.1220
     13 C8         -0.5230   -0.2259    2.9886 C.ar      1 <0>        -0.1012
     14 C9          0.0810   -0.7775    4.1029 C.ar      1 <0>        -0.1058
     15 C10         1.1275   -0.1176    4.7196 C.ar      1 <0>        -0.1063
     16 C11         1.5734    1.0913    4.2189 C.ar      1 <0>        -0.1097
     17 C12         0.9727    1.6403    3.1015 C.ar      1 <0>        -0.1414
     18 H3         -1.9826   -0.2428   -4.0405 H         1 <0>         0.0537
     19 H4         -2.4481    1.2057   -4.9643 H         1 <0>         0.0824
     20 H5         -0.8751    1.1475   -4.1332 H         1 <0>         0.0476
     21 H6         -2.1848    0.1783   -1.1596 H         1 <0>         0.4132
     22 H7         -0.6662    2.6662    1.3180 H         1 <0>         0.1062
     23 H8         -1.7755    1.2768    1.2315 H         1 <0>         0.1296
     24 H9         -1.3436   -0.7392    2.5094 H         1 <0>         0.1346
     25 H10        -0.2676   -1.7218    4.4943 H         1 <0>         0.1324
     26 H11         1.5965   -0.5464    5.5929 H         1 <0>         0.1301
     27 H12         2.3907    1.6070    4.7010 H         1 <0>         0.1303
     28 H13         1.3208    2.5850    2.7105 H         1 <0>         0.1237
     29 H14         1.8793    1.2300   -0.7907 H         1 <0>         0.4407
     30 H15         1.3787    2.6032    0.0029 H         1 <0>         0.4413
     31 O3         -4.8540    1.3566   -3.7403 O.co2     1 <0>        -0.7357
     32 N2          1.3738    1.5847    0.0195 N.4       1 <0>        -0.6282
     33 H16         1.8417    1.2613    0.8743 H         1 <0>         0.4379
@<TRIPOS>BOND
     1    1    2 1
     2    1   18 1
     3    1   19 1
     4    1   20 1
     5    2    3 1
     6    2    4 1
     7    2    6 1
     8    4    5 2
     9    4   31 1
    10    6    7 am
    11    6   21 1
    12    7    8 2
    13    7    9 1
    14    9   10 1
    15    9   11 1
    16    9   32 1
    17   11   12 1
    18   11   22 1
    19   11   23 1
    20   12   17 ar
    21   12   13 ar
    22   13   14 ar
    23   13   24 1
    24   14   15 ar
    25   14   25 1
    26   15   16 ar
    27   15   26 1
    28   16   17 ar
    29   16   27 1
    30   17   28 1
    31   29   32 1
    32   30   32 1
    33   32   33 1
