@<TRIPOS>MOLECULE
ZINC08860500
   62    61     0     0     0
SMALL
USER_CHARGES
(2-amino-3-hydroxy-octadec-4-enoxy)phosphonic acid
@<TRIPOS>ATOM
      1 C1        -14.6046    0.2647   13.8444 C.3       1 <0>        -0.1540
      2 C2        -13.8885   -0.2287   12.5856 C.3       1 <0>        -0.1264
      3 C3        -12.4960    0.4007   12.5112 C.3       1 <0>        -0.1210
      4 C4        -11.7798   -0.0927   11.2524 C.3       1 <0>        -0.1215
      5 C5        -10.3873    0.5367   11.1781 C.3       1 <0>        -0.1203
      6 C6         -9.6711    0.0433    9.9193 C.3       1 <0>        -0.1212
      7 C7         -8.2786    0.6727    9.8449 C.3       1 <0>        -0.1200
      8 C8         -7.5624    0.1793    8.5861 C.3       1 <0>        -0.1214
      9 C9         -6.1699    0.8087    8.5117 C.3       1 <0>        -0.1199
     10 C10        -5.4537    0.3153    7.2529 C.3       1 <0>        -0.1218
     11 C11        -4.0612    0.9447    7.1786 C.3       1 <0>        -0.1198
     12 C12        -3.3451    0.4513    5.9198 C.3       1 <0>        -0.1180
     13 C13        -1.9525    1.0807    5.8454 C.3       1 <0>        -0.0982
     14 C14        -1.2471    0.5947    4.6055 C.2       1 <0>        -0.1024
     15 C15        -0.7691    1.4573    3.7432 C.2       1 <0>        -0.2467
     16 C16        -0.0638    0.9713    2.5033 C.3       1 <0>         0.1346
     17 H1          0.9829    1.2737    2.5386 H         1 <0>         0.1255
     18 C17        -0.7288    1.5792    1.2668 C.3       1 <0>        -0.0008
     19 H2         -1.7755    1.2768    1.2315 H         1 <0>         0.1409
     20 C18        -0.0127    1.0858    0.0080 C.3       1 <0>         0.1006
     21 O1         -0.7038    1.5592   -1.1497 O.3       1 <0>        -0.7615
     22 P1         -0.2267    1.2297   -2.6516 P.3       1 <0>         2.1068
     23 O2         -0.1121   -0.2360   -2.8225 O.2       1 <0>        -1.1478
     24 O3         -0.1458   -0.4537    2.4363 O.3       1 <0>        -0.5273
     25 H3        -14.6980    1.3501   13.8075 H         1 <0>         0.0532
     26 H4        -15.5967   -0.1837   13.8974 H         1 <0>         0.0532
     27 H5        -14.0294   -0.0207   14.7252 H         1 <0>         0.0530
     28 H6        -14.4637    0.0567   11.7048 H         1 <0>         0.0605
     29 H7        -13.7951   -1.3141   12.6225 H         1 <0>         0.0603
     30 H8        -11.9207    0.1153   13.3920 H         1 <0>         0.0602
     31 H9        -12.5893    1.4861   12.4743 H         1 <0>         0.0604
     32 H10       -12.3551    0.1927   10.3717 H         1 <0>         0.0609
     33 H11       -11.6865   -1.1781   11.2894 H         1 <0>         0.0607
     34 H12        -9.8120    0.2513   12.0588 H         1 <0>         0.0600
     35 H13       -10.4806    1.6221   11.1411 H         1 <0>         0.0602
     36 H14       -10.2464    0.3287    9.0385 H         1 <0>         0.0609
     37 H15        -9.5778   -1.0421    9.9562 H         1 <0>         0.0607
     38 H16        -7.7033    0.3873   10.7256 H         1 <0>         0.0599
     39 H17        -8.3719    1.7581    9.8080 H         1 <0>         0.0600
     40 H18        -8.1377    0.4647    7.7053 H         1 <0>         0.0611
     41 H19        -7.4691   -0.9061    8.6230 H         1 <0>         0.0610
     42 H20        -5.5946    0.5233    9.3925 H         1 <0>         0.0602
     43 H21        -6.2632    1.8941    8.4748 H         1 <0>         0.0599
     44 H22        -6.0290    0.6007    6.3722 H         1 <0>         0.0619
     45 H23        -5.3604   -0.7701    7.2899 H         1 <0>         0.0622
     46 H24        -3.4860    0.6593    8.0593 H         1 <0>         0.0619
     47 H25        -4.1546    2.0301    7.1416 H         1 <0>         0.0606
     48 H26        -3.9203    0.7367    5.0390 H         1 <0>         0.0643
     49 H27        -3.2517   -0.6341    5.9567 H         1 <0>         0.0668
     50 H28        -1.3773    0.7953    6.7261 H         1 <0>         0.0790
     51 H29        -2.0459    2.1661    5.8085 H         1 <0>         0.0671
     52 H30        -1.1357   -0.4647    4.4278 H         1 <0>         0.1262
     53 H31        -0.8806    2.5168    3.9209 H         1 <0>         0.1168
     54 H32         0.0021   -0.0041    0.0020 H         1 <0>         0.0909
     55 H33         1.0099    1.4631    0.0003 H         1 <0>         0.0612
     56 H34        -1.1648    3.3997    2.1238 H         1 <0>         0.4198
     57 H35         0.3165    3.3498    1.3694 H         1 <0>         0.4312
     58 H36        -1.0502   -0.7944    2.4021 H         1 <0>         0.3865
     59 O4         -1.3056    1.8090   -3.6968 O.3       1 <0>        -1.1604
     60 O5          1.2047    1.9151   -2.9226 O.3       1 <0>        -1.1840
     61 N1         -0.6555    3.0502    1.3138 N.4       1 <0>        -0.6320
     62 H37        -1.0768    3.4365    0.4609 H         1 <0>         0.4555
@<TRIPOS>BOND
     1    1    2 1
     2    1   25 1
     3    1   26 1
     4    1   27 1
     5    2    3 1
     6    2   28 1
     7    2   29 1
     8    3    4 1
     9    3   30 1
    10    3   31 1
    11    4    5 1
    12    4   32 1
    13    4   33 1
    14    5    6 1
    15    5   34 1
    16    5   35 1
    17    6    7 1
    18    6   36 1
    19    6   37 1
    20    7    8 1
    21    7   38 1
    22    7   39 1
    23    8    9 1
    24    8   40 1
    25    8   41 1
    26    9   10 1
    27    9   42 1
    28    9   43 1
    29   10   11 1
    30   10   44 1
    31   10   45 1
    32   11   12 1
    33   11   46 1
    34   11   47 1
    35   12   13 1
    36   12   48 1
    37   12   49 1
    38   13   14 1
    39   13   50 1
    40   13   51 1
    41   14   15 2
    42   14   52 1
    43   15   16 1
    44   15   53 1
    45   16   17 1
    46   16   18 1
    47   16   24 1
    48   18   19 1
    49   18   20 1
    50   18   61 1
    51   20   21 1
    52   20   54 1
    53   20   55 1
    54   21   22 1
    55   22   23 2
    56   22   59 1
    57   22   60 1
    58   24   58 1
    59   56   61 1
    60   57   61 1
    61   61   62 1
@<TRIPOS>MOLECULE
ZINC36178158
   62    61     0     0     0
SMALL
USER_CHARGES

@<TRIPOS>ATOM
      1 C1         -0.0187    1.5258    0.0104 C.3       1 <0>        -0.1541
      2 C2          0.0021   -0.0041    0.0020 C.3       1 <0>        -0.1263
      3 C3          0.7182   -0.4975   -1.2568 C.3       1 <0>        -0.1211
      4 C4          0.7390   -2.0273   -1.2652 C.3       1 <0>        -0.1214
      5 C5          1.4551   -2.5207   -2.5240 C.3       1 <0>        -0.1205
      6 C6          1.4758   -4.0506   -2.5324 C.3       1 <0>        -0.1209
      7 C7          2.1920   -4.5440   -3.7912 C.3       1 <0>        -0.1205
      8 C8          2.2127   -6.0738   -3.7996 C.3       1 <0>        -0.1209
      9 C9          2.9289   -6.5673   -5.0584 C.3       1 <0>        -0.1208
     10 C10         2.9496   -8.0971   -5.0668 C.3       1 <0>        -0.1208
     11 C11         3.6658   -8.5905   -6.3257 C.3       1 <0>        -0.1218
     12 C12         3.6865  -10.1203   -6.3341 C.3       1 <0>        -0.1165
     13 C13         4.4026  -10.6138   -7.5929 C.3       1 <0>        -0.1010
     14 C14         4.4231  -12.1206   -7.6012 C.2       1 <0>        -0.1163
     15 C15         3.9428  -12.7765   -8.6284 C.2       1 <0>        -0.2442
     16 C16         3.9632  -14.2834   -8.6366 C.3       1 <0>         0.1258
     17 H1          4.6211  -14.6334   -9.4321 H         1 <0>         0.1507
     18 C17         2.5473  -14.8113   -8.8765 C.3       1 <0>        -0.0034
     19 H2          2.2157  -14.5219   -9.8737 H         1 <0>         0.1534
     20 C18         2.5456  -16.3370   -8.7611 C.3       1 <0>         0.1041
     21 O1          1.2509  -16.8387   -9.0990 O.3       1 <0>        -0.7601
     22 P1          0.8873  -18.4070   -9.0855 P.3       1 <0>         2.1022
     23 O2          1.8969  -19.1850   -9.9965 O.2       1 <0>        -1.1706
     24 O3          0.9798  -18.9520   -7.6196 O.3       1 <0>        -1.1709
     25 O4         -0.5686  -18.6103   -9.6273 O.3       1 <0>        -1.1486
     26 N1          1.6365  -14.2434   -7.8735 N.4       1 <0>        -0.6280
     27 O5          4.4425  -14.7602   -7.3777 O.3       1 <0>        -0.5324
     28 H3          1.0039    1.9031    0.0027 H         1 <0>         0.0531
     29 H4         -0.5459    1.8868   -0.8726 H         1 <0>         0.0532
     30 H5         -0.5289    1.8773    0.9072 H         1 <0>         0.0533
     31 H6          0.5293   -0.3651    0.8851 H         1 <0>         0.0603
     32 H7         -1.0205   -0.3814    0.0098 H         1 <0>         0.0604
     33 H8          0.1910   -0.1364   -2.1398 H         1 <0>         0.0605
     34 H9          1.7408   -0.1202   -1.2645 H         1 <0>         0.0603
     35 H10         1.2661   -2.3884   -0.3821 H         1 <0>         0.0606
     36 H11        -0.2836   -2.4046   -1.2575 H         1 <0>         0.0607
     37 H12         0.9279   -2.1597   -3.4071 H         1 <0>         0.0604
     38 H13         2.4777   -2.1435   -2.5317 H         1 <0>         0.0602
     39 H14         2.0030   -4.4117   -1.6494 H         1 <0>         0.0606
     40 H15         0.4533   -4.4279   -2.5247 H         1 <0>         0.0607
     41 H16         1.6648   -4.1829   -4.6743 H         1 <0>         0.0603
     42 H17         3.2146   -4.1667   -3.7990 H         1 <0>         0.0602
     43 H18         2.7399   -6.4349   -2.9166 H         1 <0>         0.0608
     44 H19         1.1901   -6.4511   -3.7919 H         1 <0>         0.0607
     45 H20         2.4017   -6.2062   -5.9415 H         1 <0>         0.0605
     46 H21         3.9515   -6.1900   -5.0662 H         1 <0>         0.0607
     47 H22         3.4768   -8.4582   -4.1838 H         1 <0>         0.0618
     48 H23         1.9270   -8.4744   -5.0591 H         1 <0>         0.0609
     49 H24         3.1386   -8.2294   -7.2087 H         1 <0>         0.0621
     50 H25         4.6884   -8.2132   -6.3334 H         1 <0>         0.0631
     51 H26         4.2137  -10.4814   -5.4510 H         1 <0>         0.0666
     52 H27         2.6639  -10.4976   -6.3263 H         1 <0>         0.0605
     53 H28         3.8755  -10.2527   -8.4759 H         1 <0>         0.0708
     54 H29         5.4252  -10.2365   -7.6006 H         1 <0>         0.0811
     55 H30         4.8337  -12.6597   -6.7602 H         1 <0>         0.1249
     56 H31         3.5321  -12.2374   -9.4693 H         1 <0>         0.1313
     57 H32         3.2862  -16.7538   -9.4436 H         1 <0>         0.0870
     58 H33         2.7911  -16.6243   -7.7388 H         1 <0>         0.0667
     59 H34         1.9435  -14.5112   -6.9504 H         1 <0>         0.4225
     60 H35         1.6377  -13.2372   -7.9496 H         1 <0>         0.4190
     61 H36         3.9041  -14.4863   -6.6226 H         1 <0>         0.3673
     62 H37         0.7028  -14.5915   -8.0317 H         1 <0>         0.4514
@<TRIPOS>BOND
     1    1    2 1
     2    1   28 1
     3    1   29 1
     4    1   30 1
     5    2    3 1
     6    2   31 1
     7    2   32 1
     8    3    4 1
     9    3   33 1
    10    3   34 1
    11    4    5 1
    12    4   35 1
    13    4   36 1
    14    5    6 1
    15    5   37 1
    16    5   38 1
    17    6    7 1
    18    6   39 1
    19    6   40 1
    20    7    8 1
    21    7   41 1
    22    7   42 1
    23    8    9 1
    24    8   43 1
    25    8   44 1
    26    9   10 1
    27    9   45 1
    28    9   46 1
    29   10   11 1
    30   10   47 1
    31   10   48 1
    32   11   12 1
    33   11   49 1
    34   11   50 1
    35   12   13 1
    36   12   51 1
    37   12   52 1
    38   13   14 1
    39   13   53 1
    40   13   54 1
    41   14   15 2
    42   14   55 1
    43   15   16 1
    44   15   56 1
    45   16   17 1
    46   16   18 1
    47   16   27 1
    48   18   19 1
    49   18   20 1
    50   18   26 1
    51   20   21 1
    52   20   57 1
    53   20   58 1
    54   21   22 1
    55   22   23 2
    56   22   24 1
    57   22   25 1
    58   26   59 1
    59   26   60 1
    60   26   62 1
    61   27   61 1
@<TRIPOS>MOLECULE
ZINC14163155
   59    59     0     0     0
SMALL
USER_CHARGES
[(2R)-2-amino-2-(hydroxymethyl)-4-(4-octylphenyl)butyl] dihydrogen phosphate
@<TRIPOS>ATOM
      1 C1         -0.8243    1.6329   -8.7265 C.3       1 <0>        -0.1541
      2 C2         -0.0843    1.1261   -7.4870 C.3       1 <0>        -0.1262
      3 C3         -0.8004    1.6195   -6.2282 C.3       1 <0>        -0.1212
      4 C4         -0.0604    1.1126   -4.9886 C.3       1 <0>        -0.1212
      5 C5         -0.7766    1.6061   -3.7298 C.3       1 <0>        -0.1201
      6 C6         -0.0366    1.0992   -2.4903 C.3       1 <0>        -0.1210
      7 C7         -0.7527    1.5927   -1.2315 C.3       1 <0>        -0.1123
      8 C8         -0.0127    1.0858    0.0080 C.3       1 <0>        -0.0838
      9 C9         -0.7181    1.5718    1.2479 C.ar      1 <0>        -0.0784
     10 C10        -0.3599    2.7788    1.8186 C.ar      1 <0>        -0.1150
     11 C11        -1.0099    3.2267    2.9534 C.ar      1 <0>        -0.1131
     12 C12        -2.0119    2.4632    3.5227 C.ar      1 <0>        -0.0915
     13 C13        -2.3665    1.2538    2.9550 C.ar      1 <0>        -0.1062
     14 C14        -1.7194    0.8079    1.8177 C.ar      1 <0>        -0.1139
     15 C15        -2.7180    2.9497    4.7620 C.3       1 <0>        -0.0915
     16 C16        -1.9793    2.4425    6.0022 C.3       1 <0>        -0.1302
     17 C17        -2.6962    2.9364    7.2604 C.3       1 <0>         0.0609
     18 C18        -4.0892    2.3079    7.3336 C.3       1 <0>         0.0744
     19 O1         -3.9677    0.8849    7.3822 O.3       1 <0>        -0.5458
     20 C19        -1.8900    2.5353    8.4973 C.3       1 <0>         0.1152
     21 O2         -2.5595    2.9966    9.6725 O.3       1 <0>        -0.7596
     22 P1         -1.9920    2.7502   11.1588 P.3       1 <0>         2.1106
     23 O3         -1.7656    1.3024   11.3667 O.2       1 <0>        -1.1485
     24 H1         -1.8469    1.2556   -8.7188 H         1 <0>         0.0532
     25 H2         -0.8390    2.7228   -8.7205 H         1 <0>         0.0531
     26 H3         -0.3141    1.2814   -9.6233 H         1 <0>         0.0531
     27 H4          0.9383    1.5033   -7.4947 H         1 <0>         0.0603
     28 H5         -0.0695    0.0362   -7.4930 H         1 <0>         0.0604
     29 H6         -1.8230    1.2422   -6.2204 H         1 <0>         0.0605
     30 H7         -0.8152    2.7094   -6.2222 H         1 <0>         0.0604
     31 H8          0.9622    1.4899   -4.9964 H         1 <0>         0.0608
     32 H9         -0.0456    0.0228   -4.9946 H         1 <0>         0.0609
     33 H10        -1.7991    1.2288   -3.7221 H         1 <0>         0.0607
     34 H11        -0.7913    2.6960   -3.7239 H         1 <0>         0.0605
     35 H12         0.9860    1.4765   -2.4981 H         1 <0>         0.0621
     36 H13        -0.0218    0.0093   -2.4963 H         1 <0>         0.0623
     37 H14        -1.7753    1.2154   -1.2238 H         1 <0>         0.0626
     38 H15        -0.7675    2.6825   -1.2255 H         1 <0>         0.0622
     39 H16         0.0021   -0.0041    0.0020 H         1 <0>         0.0728
     40 H17         1.0099    1.4631    0.0003 H         1 <0>         0.0725
     41 H18         0.4255    3.3735    1.3760 H         1 <0>         0.1216
     42 H19        -0.7331    4.1718    3.3968 H         1 <0>         0.1204
     43 H20        -3.1493    0.6573    3.3998 H         1 <0>         0.1242
     44 H21        -1.9965   -0.1370    1.3742 H         1 <0>         0.1223
     45 H22        -2.7321    4.0396    4.7680 H         1 <0>         0.0633
     46 H23        -3.7408    2.5731    4.7689 H         1 <0>         0.0870
     47 H24        -1.9652    1.3526    5.9962 H         1 <0>         0.1203
     48 H25        -0.9565    2.8192    5.9953 H         1 <0>         0.0911
     49 H26        -4.5999    2.6597    8.2300 H         1 <0>         0.0833
     50 H27        -4.6635    2.5936    6.4524 H         1 <0>         0.0535
     51 H28        -4.8139    0.4193    7.4298 H         1 <0>         0.3943
     52 H29        -1.7973    1.4499    8.5344 H         1 <0>         0.0913
     53 H30        -0.8976    2.9831    8.4451 H         1 <0>         0.0585
     54 H31        -3.3477    4.7443    7.9988 H         1 <0>         0.4483
     55 H32        -1.9138    4.8382    7.1616 H         1 <0>         0.4381
     56 O4         -0.6023    3.5423   11.3409 O.3       1 <0>        -1.1864
     57 O5         -3.0607    3.2864   12.2371 O.3       1 <0>        -1.1627
     58 N1         -2.8339    4.4018    7.1887 N.4       1 <0>        -0.6326
     59 H33        -3.3482    4.6512    6.3358 H         1 <0>         0.4186
@<TRIPOS>BOND
     1    1    2 1
     2    1   24 1
     3    1   25 1
     4    1   26 1
     5    2    3 1
     6    2   27 1
     7    2   28 1
     8    3    4 1
     9    3   29 1
    10    3   30 1
    11    4    5 1
    12    4   31 1
    13    4   32 1
    14    5    6 1
    15    5   33 1
    16    5   34 1
    17    6    7 1
    18    6   35 1
    19    6   36 1
    20    7    8 1
    21    7   37 1
    22    7   38 1
    23    8    9 1
    24    8   39 1
    25    8   40 1
    26    9   14 ar
    27    9   10 ar
    28   10   11 ar
    29   10   41 1
    30   11   12 ar
    31   11   42 1
    32   12   13 ar
    33   12   15 1
    34   13   14 ar
    35   13   43 1
    36   14   44 1
    37   15   16 1
    38   15   45 1
    39   15   46 1
    40   16   17 1
    41   16   47 1
    42   16   48 1
    43   17   18 1
    44   17   20 1
    45   17   58 1
    46   18   19 1
    47   18   49 1
    48   18   50 1
    49   19   51 1
    50   20   21 1
    51   20   52 1
    52   20   53 1
    53   21   22 1
    54   22   23 2
    55   22   56 1
    56   22   57 1
    57   54   58 1
    58   55   58 1
    59   58   59 1
@<TRIPOS>MOLECULE
ZINC14163159
   59    59     0     0     0
SMALL
USER_CHARGES
[(2S)-2-amino-2-(hydroxymethyl)-4-(4-octylphenyl)butyl] dihydrogen phosphate
@<TRIPOS>ATOM
      1 C1          1.2614   -8.7879   -5.8222 C.3       1 <0>        -0.1541
      2 C2          1.2688   -8.2847   -4.3773 C.3       1 <0>        -0.1262
      3 C3          1.2481   -6.7549   -4.3699 C.3       1 <0>        -0.1212
      4 C4          1.2555   -6.2517   -2.9250 C.3       1 <0>        -0.1212
      5 C5          1.2347   -4.7219   -2.9176 C.3       1 <0>        -0.1202
      6 C6          1.2422   -4.2187   -1.4727 C.3       1 <0>        -0.1210
      7 C7          1.2214   -2.6889   -1.4653 C.3       1 <0>        -0.1123
      8 C8          1.2289   -2.1857   -0.0205 C.3       1 <0>        -0.0836
      9 C9          1.2084   -0.6789   -0.0132 C.ar      1 <0>        -0.0790
     10 C10         0.0021   -0.0041    0.0020 C.ar      1 <0>        -0.1153
     11 C11        -0.0167    1.3781    0.0096 C.ar      1 <0>        -0.1134
     12 C12         1.1709    2.0855    0.0021 C.ar      1 <0>        -0.0915
     13 C13         2.3773    1.4107   -0.0145 C.ar      1 <0>        -0.1064
     14 C14         2.3961    0.0285   -0.0212 C.ar      1 <0>        -0.1140
     15 C15         1.1505    3.5924    0.0099 C.3       1 <0>        -0.0896
     16 C16         1.1571    4.0950    1.4550 C.3       1 <0>        -0.1255
     17 C17         1.1364    5.6248    1.4629 C.3       1 <0>         0.0604
     18 C18         2.3717    6.1554    0.7328 C.3       1 <0>         0.0729
     19 O1          3.5511    5.6916    1.3930 O.3       1 <0>        -0.5462
     20 C19         1.1430    6.1275    2.9080 C.3       1 <0>         0.1106
     21 O2          1.0062    7.5499    2.9182 O.3       1 <0>        -0.7624
     22 P1          0.9742    8.4180    4.2737 P.3       1 <0>         2.1098
     23 O3          2.1823    8.1239    5.0766 O.2       1 <0>        -1.1476
     24 H1          0.3615   -8.4343   -6.3254 H         1 <0>         0.0531
     25 H2          2.1412   -8.4101   -6.3430 H         1 <0>         0.0532
     26 H3          1.2762   -9.8778   -5.8274 H         1 <0>         0.0531
     27 H4          2.1687   -8.6383   -3.8740 H         1 <0>         0.0604
     28 H5          0.3890   -8.6626   -3.8564 H         1 <0>         0.0603
     29 H6          0.3482   -6.4013   -4.8731 H         1 <0>         0.0604
     30 H7          2.1279   -6.3771   -4.8907 H         1 <0>         0.0605
     31 H8          2.1554   -6.6053   -2.4218 H         1 <0>         0.0609
     32 H9          0.3757   -6.6296   -2.4042 H         1 <0>         0.0608
     33 H10         0.3348   -4.3683   -3.4208 H         1 <0>         0.0605
     34 H11         2.1146   -4.3441   -3.4385 H         1 <0>         0.0607
     35 H12         2.1421   -4.5723   -0.9695 H         1 <0>         0.0622
     36 H13         0.3624   -4.5966   -0.9519 H         1 <0>         0.0620
     37 H14         0.3215   -2.3353   -1.9686 H         1 <0>         0.0622
     38 H15         2.1012   -2.3111   -1.9862 H         1 <0>         0.0626
     39 H16         2.1288   -2.5393    0.4828 H         1 <0>         0.0727
     40 H17         0.3491   -2.5635    0.5004 H         1 <0>         0.0723
     41 H18        -0.9258   -0.5567    0.0083 H         1 <0>         0.1213
     42 H19        -0.9592    1.9054    0.0170 H         1 <0>         0.1199
     43 H20         3.3052    1.9634   -0.0205 H         1 <0>         0.1243
     44 H21         3.3386   -0.4987   -0.0324 H         1 <0>         0.1221
     45 H22         2.0306    3.9704   -0.5103 H         1 <0>         0.0869
     46 H23         0.2509    3.9462   -0.4937 H         1 <0>         0.0637
     47 H24         0.2770    3.7170    1.9752 H         1 <0>         0.0897
     48 H25         2.0567    3.7412    1.9586 H         1 <0>         0.1196
     49 H26         2.3670    5.7974   -0.2967 H         1 <0>         0.0558
     50 H27         2.3570    7.2453    0.7384 H         1 <0>         0.0813
     51 H28         4.3745    5.9903    0.9833 H         1 <0>         0.3942
     52 H29         0.3122    5.6787    3.4526 H         1 <0>         0.0601
     53 H30         2.0827    5.8493    3.3851 H         1 <0>         0.0913
     54 H31        -0.0730    5.8373   -0.1896 H         1 <0>         0.4166
     55 H32        -0.9064    5.7644    1.2478 H         1 <0>         0.4377
     56 O4          0.9422    9.9853    3.9067 O.3       1 <0>        -1.1619
     57 O5         -0.3400    8.0387    5.1230 O.3       1 <0>        -1.1852
     58 N1         -0.0731    6.1266    0.7871 N.4       1 <0>        -0.6315
     59 H33        -0.0842    7.1523    0.8327 H         1 <0>         0.4534
@<TRIPOS>BOND
     1    1    2 1
     2    1   24 1
     3    1   25 1
     4    1   26 1
     5    2    3 1
     6    2   27 1
     7    2   28 1
     8    3    4 1
     9    3   29 1
    10    3   30 1
    11    4    5 1
    12    4   31 1
    13    4   32 1
    14    5    6 1
    15    5   33 1
    16    5   34 1
    17    6    7 1
    18    6   35 1
    19    6   36 1
    20    7    8 1
    21    7   37 1
    22    7   38 1
    23    8    9 1
    24    8   39 1
    25    8   40 1
    26    9   14 ar
    27    9   10 ar
    28   10   11 ar
    29   10   41 1
    30   11   12 ar
    31   11   42 1
    32   12   13 ar
    33   12   15 1
    34   13   14 ar
    35   13   43 1
    36   14   44 1
    37   15   16 1
    38   15   45 1
    39   15   46 1
    40   16   17 1
    41   16   47 1
    42   16   48 1
    43   17   18 1
    44   17   20 1
    45   17   58 1
    46   18   19 1
    47   18   49 1
    48   18   50 1
    49   19   51 1
    50   20   21 1
    51   20   52 1
    52   20   53 1
    53   21   22 1
    54   22   23 2
    55   22   56 1
    56   22   57 1
    57   54   58 1
    58   55   58 1
    59   58   59 1
@<TRIPOS>MOLECULE
ZINC71331761
   45    47     0     0     0
SMALL
USER_CHARGES

@<TRIPOS>ATOM
      1 C1          2.0513    0.6766    0.4049 C.3       1 <0>        -0.1234
      2 C2          1.0052   -0.3866    0.1895 C.ar      1 <0>        -0.0667
      3 C3          0.9859   -1.1090   -0.9873 C.ar      1 <0>        -0.0943
      4 C4          0.0263   -2.0848   -1.1858 C.ar      1 <0>        -0.1595
      5 C5         -0.9171   -2.3403   -0.2075 C.ar      1 <0>        -0.0934
      6 C6         -0.9037   -1.6212    0.9715 C.ar      1 <0>        -0.0590
      7 C7          0.0629   -0.6450    1.1767 C.ar      1 <0>         0.1699
      8 N1          0.0834    0.0803    2.3719 N.am      1 <0>        -0.6832
      9 C8          0.5344   -0.4973    3.5031 C.2       1 <0>         0.6202
     10 O1          0.9972   -1.6228    3.4691 O.2       1 <0>        -0.5010
     11 C9          0.4678    0.2290    4.7731 C.2       1 <0>        -0.0920
     12 C10         0.8963   -0.2390    5.9964 C.2       1 <0>        -0.0957
     13 C11         0.6445    0.7742    6.9268 C.2       1 <0>        -0.1880
     14 C12         0.0774    1.8130    6.2456 C.2       1 <0>         0.0707
     15 O2         -0.0188    1.4759    4.9486 O.3       1 <0>        -0.1457
     16 C13        -0.3528    3.0965    6.8355 C.ar      1 <0>        -0.0157
     17 C14        -1.1576    3.1092    7.9767 C.ar      1 <0>        -0.0680
     18 C15        -1.5557    4.3126    8.5231 C.ar      1 <0>        -0.0319
     19 C16        -1.1588    5.5058    7.9423 C.ar      1 <0>        -0.0784
     20 C17        -0.3622    5.5007    6.8118 C.ar      1 <0>        -0.0948
     21 C18         0.0483    4.3041    6.2578 C.ar      1 <0>        -0.0116
     22 Cl1         1.0546    4.2999    4.8433 Cl        1 <0>        -0.0448
     23 Cl2        -2.5566    4.3307    9.9414 Cl        1 <0>        -0.0419
     24 C19        -1.9328   -1.8996    2.0366 C.3       1 <0>        -0.1255
     25 C20         0.0083   -2.8711   -2.4713 C.3       1 <0>         0.0491
     26 N2          0.8446   -4.0698   -2.3238 N.4       1 <0>        -0.6374
     27 H1          2.9303    0.2322    0.8718 H         1 <0>         0.0813
     28 H2          2.3303    1.1115   -0.5548 H         1 <0>         0.0776
     29 H3          1.6498    1.4551    1.0537 H         1 <0>         0.0725
     30 H4          1.7208   -0.9115   -1.7536 H         1 <0>         0.1372
     31 H5         -1.6654   -3.1028   -0.3658 H         1 <0>         0.1372
     32 H6         -0.2270    0.9992    2.3870 H         1 <0>         0.4196
     33 H7          1.3404   -1.2026    6.1977 H         1 <0>         0.1683
     34 H8          0.8579    0.7411    7.9849 H         1 <0>         0.1669
     35 H9         -1.4681    2.1797    8.4304 H         1 <0>         0.1521
     36 H10        -1.4732    6.4445    8.3740 H         1 <0>         0.1526
     37 H11        -0.0566    6.4347    6.3638 H         1 <0>         0.1532
     38 H12        -1.6000   -2.7338    2.6542 H         1 <0>         0.0833
     39 H13        -2.0595   -1.0142    2.6596 H         1 <0>         0.0713
     40 H14        -2.8832   -2.1521    1.5664 H         1 <0>         0.0781
     41 H15        -1.0149   -3.1681   -2.7013 H         1 <0>         0.1411
     42 H16         0.3980   -2.2535   -3.2805 H         1 <0>         0.1411
     43 H17         0.8326   -4.5963   -3.1845 H         1 <0>         0.4379
     44 H18         1.7918   -3.7949   -2.1109 H         1 <0>         0.4352
     45 H19         0.4839   -4.6415   -1.5747 H         1 <0>         0.4354
@<TRIPOS>BOND
     1    1    2 1
     2    1   27 1
     3    1   28 1
     4    1   29 1
     5    2    7 ar
     6    2    3 ar
     7    3    4 ar
     8    3   30 1
     9    4    5 ar
    10    4   25 1
    11    5    6 ar
    12    5   31 1
    13    6    7 ar
    14    6   24 1
    15    7    8 1
    16    8    9 am
    17    8   32 1
    18    9   10 2
    19    9   11 1
    20   11   15 1
    21   11   12 2
    22   12   13 1
    23   12   33 1
    24   13   14 2
    25   13   34 1
    26   14   15 1
    27   14   16 1
    28   16   21 ar
    29   16   17 ar
    30   17   18 ar
    31   17   35 1
    32   18   19 ar
    33   18   23 1
    34   19   20 ar
    35   19   36 1
    36   20   21 ar
    37   20   37 1
    38   21   22 1
    39   24   38 1
    40   24   39 1
    41   24   40 1
    42   25   26 1
    43   25   41 1
    44   25   42 1
    45   26   43 1
    46   26   44 1
    47   26   45 1
