@<TRIPOS>MOLECULE
ZINC01530348
   18    17     0     0     0
SMALL
USER_CHARGES

@<TRIPOS>ATOM
      1 C1         -0.0187    1.5258    0.0104 C.3       1 <0>        -0.0936
      2 C2          0.0021   -0.0041    0.0020 C.3       1 <0>        -0.0936
      3 C3         -1.4333   -0.5336    0.0129 C.3       1 <0>        -0.1811
      4 C4         -1.4129   -2.0405    0.0046 C.2       1 <0>         0.4899
      5 O1         -0.3489   -2.6357   -0.0088 O.co2     1 <0>        -0.7022
      6 O2         -2.4603   -2.6644    0.0112 O.co2     1 <0>        -0.7197
      7 C5          1.4167    2.0553   -0.0004 C.3       1 <0>        -0.1811
      8 C6          1.3963    3.5622    0.0079 C.2       1 <0>         0.4899
      9 O3          0.3323    4.1574    0.0212 O.co2     1 <0>        -0.7022
     10 O4          2.4437    4.1861    0.0012 O.co2     1 <0>        -0.7197
     11 H1         -0.5459    1.8868   -0.8726 H         1 <0>         0.0502
     12 H2         -0.5289    1.8773    0.9072 H         1 <0>         0.0502
     13 H3          0.5123   -0.3556   -0.8948 H         1 <0>         0.0502
     14 H4          0.5293   -0.3651    0.8851 H         1 <0>         0.0502
     15 H5         -1.9435   -0.1821    0.9097 H         1 <0>         0.0532
     16 H6         -1.9605   -0.1726   -0.8702 H         1 <0>         0.0532
     17 H7          1.9439    1.6943    0.8826 H         1 <0>         0.0532
     18 H8          1.9269    1.7038   -0.8972 H         1 <0>         0.0532
@<TRIPOS>BOND
     1    1    2 1
     2    1    7 1
     3    1   11 1
     4    1   12 1
     5    2    3 1
     6    2   13 1
     7    2   14 1
     8    3    4 1
     9    3   15 1
    10    3   16 1
    11    4    5 2
    12    4    6 1
    13    7    8 1
    14    7   17 1
    15    7   18 1
    16    8    9 2
    17    8   10 1
@<TRIPOS>MOLECULE
ZINC00388706
   15    14     0     0     0
SMALL
USER_CHARGES
glutaric acid
@<TRIPOS>ATOM
      1 C1         -2.4788    0.9298    0.0189 C.3       1 <0>        -0.0775
      2 C2         -1.3295    1.9397    0.0189 C.3       1 <0>        -0.1569
      3 C3         -0.0143    1.2041    0.0087 C.2       1 <0>         0.4599
      4 O1          0.0021   -0.0041    0.0020 O.co2     1 <0>        -0.6379
      5 C4         -3.8141    1.6767    0.0293 C.3       1 <0>        -0.1570
      6 C5         -4.9461    0.6820    0.0292 C.2       1 <0>         0.4599
      7 O2         -4.7092   -0.5028    0.0217 O.co2     1 <0>        -0.6379
      8 H1         -2.4168    0.3088   -0.8748 H         1 <0>         0.0562
      9 H2         -2.4084    0.2992    0.9051 H         1 <0>         0.0562
     10 H3         -1.3915    2.5607    0.9126 H         1 <0>         0.0565
     11 H4         -1.4000    2.5704   -0.8673 H         1 <0>         0.0566
     12 H5         -3.8761    2.2977    0.9229 H         1 <0>         0.0565
     13 H6         -3.8845    2.3074   -0.8570 H         1 <0>         0.0565
     14 O3          1.1389    1.8910    0.0013 O.co2     1 <0>        -0.7956
     15 O4         -6.2176    1.1121    0.0376 O.co2     1 <0>        -0.7956
@<TRIPOS>BOND
     1    1    2 1
     2    1    5 1
     3    1    8 1
     4    1    9 1
     5    2    3 1
     6    2   10 1
     7    2   11 1
     8    3    4 2
     9    3   14 1
    10    5    6 1
    11    5   12 1
    12    5   13 1
    13    6    7 2
    14    6   15 1
@<TRIPOS>MOLECULE
ZINC03872582
   36    39     0     0     0
SMALL
USER_CHARGES

@<TRIPOS>ATOM
      1 C1         -0.0167    1.3773    0.0096 C.ar      1 <0>        -0.1263
      2 C2          1.1671    2.0952    0.0022 C.ar      1 <0>        -0.1188
      3 C3          2.3841    1.4398   -0.0135 C.ar      1 <0>        -0.0867
      4 C4          2.4255    0.0473   -0.0214 C.ar      1 <0>        -0.1021
      5 C5          1.2196   -0.6846   -0.0133 C.ar      1 <0>        -0.0686
      6 C6          0.0021   -0.0041    0.0020 C.ar      1 <0>        -0.1107
      7 C7          1.2459   -2.1591   -0.0220 C.2       1 <0>         0.1795
      8 C8          0.9416   -2.9301    1.1853 C.ar      1 <0>        -0.1450
      9 C9          0.6155   -2.2854    2.3865 C.ar      1 <0>        -0.0254
     10 C10         0.3354   -3.0242    3.4973 C.ar      1 <0>        -0.1732
     11 C11         0.3716   -4.4186    3.4451 C.ar      1 <0>         0.1650
     12 C12         0.6919   -5.0727    2.2665 C.ar      1 <0>        -0.1728
     13 C13         0.9802   -4.3387    1.1249 C.ar      1 <0>         0.1740
     14 O1          1.2921   -4.9657   -0.0271 O.3       1 <0>        -0.2161
     15 C14         1.5785   -4.2937   -1.1611 C.2       1 <0>         0.2151
     16 C15         1.8905   -4.9924   -2.3105 C.2       1 <0>        -0.3119
     17 C16         2.1884   -4.2992   -3.4898 C.2       1 <0>         0.4158
     18 O2          2.4645   -4.9208   -4.5087 O.2       1 <0>        -0.5271
     19 C17         2.1719   -2.8885   -3.5113 C.2       1 <0>        -0.2395
     20 C18         1.8674   -2.1926   -2.3883 C.2       1 <0>         0.0016
     21 C19         1.5597   -2.8778   -1.1960 C.2       1 <0>        -0.1400
     22 O3          0.0910   -5.1402    4.5590 O.3       1 <0>        -0.4906
     23 C20         3.7220   -0.6573   -0.0385 C.2       1 <0>         0.5134
     24 O4          4.7649   -0.0187   -0.0459 O.co2     1 <0>        -0.6747
     25 O5          3.7535   -1.8798   -0.0454 O.co2     1 <0>        -0.6610
     26 H1         -0.9612    1.9007    0.0260 H         1 <0>         0.1226
     27 H2          1.1395    3.1748    0.0082 H         1 <0>         0.1214
     28 H3          3.3030    2.0074   -0.0199 H         1 <0>         0.1348
     29 H4         -0.9257   -0.5569    0.0083 H         1 <0>         0.1219
     30 H5          0.5866   -1.2068    2.4319 H         1 <0>         0.1422
     31 H6          0.0845   -2.5279    4.4231 H         1 <0>         0.1402
     32 H7          0.7176   -6.1519    2.2365 H         1 <0>         0.1494
     33 H8          1.9049   -6.0723   -2.2997 H         1 <0>         0.1370
     34 H9          2.4030   -2.3614   -4.4252 H         1 <0>         0.1325
     35 H10         1.8562   -1.1128   -2.4087 H         1 <0>         0.1278
     36 H11        -0.8448   -5.3632    4.6577 H         1 <0>         0.3960
@<TRIPOS>BOND
     1    1    6 ar
     2    1    2 ar
     3    1   26 1
     4    2    3 ar
     5    2   27 1
     6    3    4 ar
     7    3   28 1
     8    4    5 ar
     9    4   23 1
    10    5    6 ar
    11    5    7 1
    12    6   29 1
    13    7   21 2
    14    7    8 1
    15    8   13 ar
    16    8    9 ar
    17    9   10 ar
    18    9   30 1
    19   10   11 ar
    20   10   31 1
    21   11   12 ar
    22   11   22 1
    23   12   13 ar
    24   12   32 1
    25   13   14 1
    26   14   15 1
    27   15   21 1
    28   15   16 2
    29   16   17 1
    30   16   33 1
    31   17   18 2
    32   17   19 1
    33   19   20 2
    34   19   34 1
    35   20   21 1
    36   20   35 1
    37   22   36 1
    38   23   24 2
    39   23   25 1
@<TRIPOS>MOLECULE
ZINC29056295
   35    38     0     0     0
SMALL
USER_CHARGES

@<TRIPOS>ATOM
      1 C1         -0.0167    1.3774    0.0096 C.ar      1 <0>        -0.1266
      2 C2          1.1670    2.0952    0.0022 C.ar      1 <0>        -0.1215
      3 C3          2.3842    1.4397   -0.0135 C.ar      1 <0>        -0.0877
      4 C4          2.4255    0.0474   -0.0218 C.ar      1 <0>        -0.0994
      5 C5          1.2197   -0.6846   -0.0138 C.ar      1 <0>        -0.0731
      6 C6          0.0021   -0.0041    0.0020 C.ar      1 <0>        -0.1076
      7 C7          1.2460   -2.1590   -0.0229 C.2       1 <0>         0.2657
      8 C8          1.5798   -2.8881    1.1445 C.ar      1 <0>        -0.2105
      9 C9          1.8935   -2.2170    2.3393 C.ar      1 <0>         0.0575
     10 C10         2.2120   -2.9291    3.4541 C.ar      1 <0>        -0.1981
     11 C11         2.2295   -4.3309    3.4184 C.ar      1 <0>         0.3725
     12 C12         1.9218   -5.0107    2.2447 C.ar      1 <0>        -0.2566
     13 C13         1.5953   -4.3002    1.1006 C.ar      1 <0>         0.2558
     14 O1          1.2951   -4.9553   -0.0400 O.3       1 <0>        -0.1896
     15 C14         0.9719   -4.2973   -1.1726 C.2       1 <0>         0.2575
     16 C15         0.6690   -5.0048   -2.3250 C.2       1 <0>        -0.2592
     17 C16         0.3355   -4.3220   -3.4898 C.2       1 <0>         0.3694
     18 O2          0.0411   -5.0123   -4.6084 O.2       1 <0>        -0.5938
     19 C17         0.3030   -2.9202   -3.5082 C.2       1 <0>        -0.1998
     20 C18         0.5982   -2.2110   -2.3852 C.2       1 <0>         0.0428
     21 C19         0.9325   -2.8851   -1.1978 C.2       1 <0>        -0.2486
     22 Br1        -0.1528   -2.0107   -5.1022 Br        1 <0>        -0.0584
     23 Br2         0.7097   -6.8953   -2.3139 Br        1 <0>        -0.0430
     24 Br3         1.9496   -6.9011    2.2100 Br        1 <0>        -0.0448
     25 O3          2.5469   -5.0240    4.5289 O.3       1 <0>        -0.5933
     26 Br4         2.6341   -2.0237    5.0597 Br        1 <0>        -0.0591
     27 C20         3.7223   -0.6573   -0.0395 C.2       1 <0>         0.5128
     28 O4          4.7651   -0.0188   -0.0468 O.co2     1 <0>        -0.6798
     29 O5          3.7538   -1.8798   -0.0468 O.co2     1 <0>        -0.6494
     30 H1         -0.9612    1.9009    0.0260 H         1 <0>         0.1212
     31 H2          1.1395    3.1748    0.0082 H         1 <0>         0.1185
     32 H3          3.3031    2.0072   -0.0195 H         1 <0>         0.1332
     33 H4         -0.9257   -0.5569    0.0083 H         1 <0>         0.1243
     34 H5          1.8819   -1.1376    2.3721 H         1 <0>         0.1324
     35 H6          0.5724   -1.1314   -2.4051 H         1 <0>         0.1364
@<TRIPOS>BOND
     1    1    6 ar
     2    1    2 ar
     3    1   30 1
     4    2    3 ar
     5    2   31 1
     6    3    4 ar
     7    3   32 1
     8    4    5 ar
     9    4   27 1
    10    5    6 ar
    11    5    7 1
    12    6   33 1
    13    7   21 2
    14    7    8 1
    15    8   13 ar
    16    8    9 ar
    17    9   10 ar
    18    9   34 1
    19   10   11 ar
    20   10   26 1
    21   11   12 ar
    22   11   25 1
    23   12   13 ar
    24   12   24 1
    25   13   14 1
    26   14   15 1
    27   15   21 1
    28   15   16 2
    29   16   17 1
    30   16   23 1
    31   17   18 2
    32   17   19 1
    33   19   20 2
    34   19   22 1
    35   20   21 1
    36   20   35 1
    37   27   28 2
    38   27   29 1
@<TRIPOS>MOLECULE
ZINC29056295
   36    39     0     0     0
SMALL
USER_CHARGES

@<TRIPOS>ATOM
      1 C1         -0.0167    1.3772    0.0096 C.ar      1 <0>        -0.1237
      2 C2          1.1671    2.0952    0.0022 C.ar      1 <0>        -0.1106
      3 C3          2.3841    1.4399   -0.0134 C.ar      1 <0>        -0.0848
      4 C4          2.4255    0.0473   -0.0217 C.ar      1 <0>        -0.0964
      5 C5          1.2196   -0.6846   -0.0136 C.ar      1 <0>        -0.0884
      6 C6          0.0021   -0.0041    0.0020 C.ar      1 <0>        -0.1061
      7 C7          1.2460   -2.1591   -0.0227 C.2       1 <0>         0.2160
      8 C8          0.9418   -2.9304    1.1846 C.ar      1 <0>        -0.1409
      9 C9          0.6156   -2.2857    2.3858 C.ar      1 <0>         0.0216
     10 C10         0.3355   -3.0248    3.4973 C.ar      1 <0>        -0.1460
     11 C11         0.3726   -4.4197    3.4453 C.ar      1 <0>         0.2270
     12 C12         0.6932   -5.0736    2.2663 C.ar      1 <0>        -0.1469
     13 C13         0.9809   -4.3388    1.1241 C.ar      1 <0>         0.2125
     14 O1          1.2931   -4.9656   -0.0282 O.3       1 <0>        -0.1863
     15 C14         1.5793   -4.2932   -1.1622 C.2       1 <0>         0.2476
     16 C15         1.8916   -4.9920   -2.3122 C.2       1 <0>        -0.2645
     17 C16         2.1895   -4.2985   -3.4916 C.2       1 <0>         0.4367
     18 O2          2.4662   -4.9200   -4.5106 O.2       1 <0>        -0.4710
     19 C17         2.1721   -2.8872   -3.5128 C.2       1 <0>        -0.2005
     20 C18         1.8671   -2.1915   -2.3890 C.2       1 <0>         0.0465
     21 C19         1.5595   -2.8773   -1.1969 C.2       1 <0>        -0.1421
     22 Br1         2.5759   -1.9635   -5.1127 Br        1 <0>        -0.0283
     23 Br2         1.9175   -6.8827   -2.2935 Br        1 <0>        -0.0198
     24 Br3         0.7394   -6.9633    2.2136 Br        1 <0>         0.0111
     25 O3          0.0925   -5.1416    4.5595 O.3       1 <0>        -0.4632
     26 Br4        -0.1047   -2.1557    5.1180 Br        1 <0>        -0.0101
     27 C20         3.7220   -0.6572   -0.0393 C.2       1 <0>         0.5130
     28 O4          4.7649   -0.0186   -0.0466 O.co2     1 <0>        -0.6656
     29 O5          3.7535   -1.8797   -0.0465 O.co2     1 <0>        -0.6622
     30 H1         -0.9612    1.9007    0.0260 H         1 <0>         0.1262
     31 H2          1.1395    3.1748    0.0082 H         1 <0>         0.1246
     32 H3          3.3029    2.0075   -0.0195 H         1 <0>         0.1380
     33 H4         -0.9257   -0.5569    0.0082 H         1 <0>         0.1248
     34 H5          0.5863   -1.2071    2.4310 H         1 <0>         0.1613
     35 H6          1.8555   -1.1117   -2.4089 H         1 <0>         0.1451
     36 H7         -0.8431   -5.3652    4.6584 H         1 <0>         0.4053
@<TRIPOS>BOND
     1    1    6 ar
     2    1    2 ar
     3    1   30 1
     4    2    3 ar
     5    2   31 1
     6    3    4 ar
     7    3   32 1
     8    4    5 ar
     9    4   27 1
    10    5    6 ar
    11    5    7 1
    12    6   33 1
    13    7   21 2
    14    7    8 1
    15    8   13 ar
    16    8    9 ar
    17    9   10 ar
    18    9   34 1
    19   10   11 ar
    20   10   26 1
    21   11   12 ar
    22   11   25 1
    23   12   13 ar
    24   12   24 1
    25   13   14 1
    26   14   15 1
    27   15   21 1
    28   15   16 2
    29   16   17 1
    30   16   23 1
    31   17   18 2
    32   17   19 1
    33   19   20 2
    34   19   22 1
    35   20   21 1
    36   20   35 1
    37   25   36 1
    38   27   28 2
    39   27   29 1
@<TRIPOS>MOLECULE
ZINC00119344
   23    23     0     0     0
SMALL
USER_CHARGES

@<TRIPOS>ATOM
      1 C1         -0.0169    1.3937    0.0097 C.ar      1 <0>        -0.0129
      2 C2          1.1662    2.0965    0.0022 C.ar      1 <0>        -0.2119
      3 C3          2.3811    1.4169   -0.0131 C.ar      1 <0>         0.2319
      4 C4          2.4034    0.0249   -0.0208 C.ar      1 <0>        -0.2070
      5 C5          1.2237   -0.6836   -0.0138 C.ar      1 <0>        -0.0340
      6 C6          0.0021   -0.0041    0.0020 C.ar      1 <0>        -0.1855
      7 C7         -1.2644   -0.7605    0.0105 C.2       1 <0>         0.5487
      8 O1         -2.3263   -0.1682    0.0243 O.2       1 <0>        -0.5655
      9 N1         -1.2445   -2.1081    0.0031 N.am      1 <0>        -0.6967
     10 C8         -2.5022   -2.8593    0.0116 C.3       1 <0>         0.0506
     11 C9         -2.2050   -4.3367    0.0007 C.2       1 <0>         0.4907
     12 O2         -1.0497   -4.7260   -0.0129 O.co2     1 <0>        -0.6930
     13 O3         -3.1199   -5.1426    0.0055 O.co2     1 <0>        -0.6890
     14 N2          3.5749    2.1299   -0.0211 N.pl3     1 <0>        -0.8739
     15 H1         -0.9590    1.9215    0.0260 H         1 <0>         0.1336
     16 H2          1.1522    3.1764    0.0078 H         1 <0>         0.1228
     17 H3          3.3474   -0.4995   -0.0326 H         1 <0>         0.1245
     18 H4          1.2416   -1.7634   -0.0204 H         1 <0>         0.1319
     19 H5         -0.3974   -2.5806   -0.0078 H         1 <0>         0.4061
     20 H6         -3.0688   -2.6092    0.9086 H         1 <0>         0.0662
     21 H7         -3.0864   -2.5997   -0.8713 H         1 <0>         0.0662
     22 H8          3.5606    3.0997   -0.0161 H         1 <0>         0.3976
     23 H9          4.4220    1.6574   -0.0317 H         1 <0>         0.3983
@<TRIPOS>BOND
     1    1    6 ar
     2    1    2 ar
     3    1   15 1
     4    2    3 ar
     5    2   16 1
     6    3    4 ar
     7    3   14 1
     8    4    5 ar
     9    4   17 1
    10    5    6 ar
    11    5   18 1
    12    6    7 1
    13    7    8 2
    14    7    9 am
    15    9   10 1
    16    9   19 1
    17   10   11 1
    18   10   20 1
    19   10   21 1
    20   11   12 2
    21   11   13 1
    22   14   22 1
    23   14   23 1
@<TRIPOS>MOLECULE
ZINC38141758
   32    32     0     0     0
SMALL
USER_CHARGES

@<TRIPOS>ATOM
      1 C1         -0.0187    1.5258    0.0104 C.3       1 <0>        -0.1171
      2 C2          0.0021   -0.0041    0.0020 C.3       1 <0>        -0.1346
      3 H1          0.5123   -0.3556   -0.8948 H         1 <0>         0.0688
      4 C3         -1.4117   -0.5257    0.0127 C.ar      1 <0>        -0.0283
      5 C4         -2.2591   -0.2043    1.0565 C.ar      1 <0>        -0.0789
      6 C5         -3.5560   -0.6827    1.0663 C.ar      1 <0>        -0.1224
      7 C6         -4.0056   -1.4823    0.0321 C.ar      1 <0>        -0.1045
      8 C7         -3.1585   -1.8029   -1.0121 C.ar      1 <0>        -0.1215
      9 C8         -1.8629   -1.3209   -1.0241 C.ar      1 <0>        -0.1299
     10 C9         -5.4191   -2.0047    0.0433 C.3       1 <0>        -0.0688
     11 C10        -6.3366   -1.0086   -0.6687 C.3       1 <0>        -0.0917
     12 C11        -5.9482   -0.9236   -2.1461 C.3       1 <0>        -0.1490
     13 C12        -7.7883   -1.4770   -0.5491 C.3       1 <0>        -0.1463
     14 C13         0.7309   -0.5033    1.2229 C.2       1 <0>         0.5000
     15 O1          0.1557   -1.2165    2.0272 O.co2     1 <0>        -0.6863
     16 O2          1.8959   -0.1939    1.4064 O.co2     1 <0>        -0.6999
     17 H2          1.0039    1.9031    0.0027 H         1 <0>         0.0588
     18 H3         -0.5459    1.8868   -0.8726 H         1 <0>         0.0394
     19 H4         -0.5289    1.8773    0.9072 H         1 <0>         0.0469
     20 H5         -1.9079    0.4204    1.8645 H         1 <0>         0.1152
     21 H6         -4.2179   -0.4322    1.8822 H         1 <0>         0.1106
     22 H7         -3.5096   -2.4278   -1.8199 H         1 <0>         0.1100
     23 H8         -1.2022   -1.5684   -1.8418 H         1 <0>         0.1111
     24 H9         -5.4557   -2.9647   -0.4717 H         1 <0>         0.0650
     25 H10        -5.7512   -2.1322    1.0737 H         1 <0>         0.0658
     26 H11        -6.2328   -0.0260   -0.2086 H         1 <0>         0.0696
     27 H12        -6.6019   -0.2140   -2.6534 H         1 <0>         0.0477
     28 H13        -4.9140   -0.5899   -2.2313 H         1 <0>         0.0635
     29 H14        -6.0521   -1.9062   -2.6062 H         1 <0>         0.0505
     30 H15        -8.0650   -1.5376    0.5035 H         1 <0>         0.0526
     31 H16        -8.4419   -0.7674   -1.0563 H         1 <0>         0.0514
     32 H17        -7.8921   -2.4596   -1.0092 H         1 <0>         0.0524
@<TRIPOS>BOND
     1    1    2 1
     2    1   17 1
     3    1   18 1
     4    1   19 1
     5    2    3 1
     6    2    4 1
     7    2   14 1
     8    4    9 ar
     9    4    5 ar
    10    5    6 ar
    11    5   20 1
    12    6    7 ar
    13    6   21 1
    14    7    8 ar
    15    7   10 1
    16    8    9 ar
    17    8   22 1
    18    9   23 1
    19   10   11 1
    20   10   24 1
    21   10   25 1
    22   11   12 1
    23   11   13 1
    24   11   26 1
    25   12   27 1
    26   12   28 1
    27   12   29 1
    28   13   30 1
    29   13   31 1
    30   13   32 1
    31   14   15 2
    32   14   16 1
@<TRIPOS>MOLECULE
ZINC38141759
   32    32     0     0     0
SMALL
USER_CHARGES

@<TRIPOS>ATOM
      1 C1         -0.0187    1.5258    0.0104 C.3       1 <0>        -0.1161
      2 C2          0.0021   -0.0041    0.0020 C.3       1 <0>        -0.1322
      3 H1          0.5123   -0.3556   -0.8948 H         1 <0>         0.0665
      4 C3          0.7309   -0.5033    1.2229 C.ar      1 <0>        -0.0395
      5 C4          0.2630   -0.1872    2.4847 C.ar      1 <0>        -0.1030
      6 C5          0.9315   -0.6452    3.6046 C.ar      1 <0>        -0.1208
      7 C6          2.0678   -1.4195    3.4627 C.ar      1 <0>        -0.1043
      8 C7          2.5353   -1.7363    2.2010 C.ar      1 <0>        -0.1200
      9 C8          1.8643   -1.2820    1.0811 C.ar      1 <0>        -0.1243
     10 C9          2.7973   -1.9179    4.6836 C.3       1 <0>        -0.0680
     11 C10         2.2317   -3.2785    5.0956 C.3       1 <0>        -0.0934
     12 C11         2.5261   -4.3059    4.0007 C.3       1 <0>        -0.1501
     13 C12         2.8845   -3.7270    6.4047 C.3       1 <0>        -0.1454
     14 C13        -1.4117   -0.5257    0.0127 C.2       1 <0>         0.5043
     15 O1         -1.7102   -1.4919   -0.6684 O.co2     1 <0>        -0.6985
     16 O2         -2.2571    0.0185    0.7025 O.co2     1 <0>        -0.6908
     17 H2          1.0039    1.9031    0.0027 H         1 <0>         0.0363
     18 H3         -0.5459    1.8868   -0.8726 H         1 <0>         0.0472
     19 H4         -0.5289    1.8773    0.9072 H         1 <0>         0.0598
     20 H5         -0.6248    0.4177    2.5955 H         1 <0>         0.1300
     21 H6          0.5663   -0.3977    4.5903 H         1 <0>         0.1130
     22 H7          3.4233   -2.3410    2.0902 H         1 <0>         0.1123
     23 H8          2.2274   -1.5326    0.0953 H         1 <0>         0.1149
     24 H9          3.8586   -2.0192    4.4567 H         1 <0>         0.0652
     25 H10         2.6665   -1.2077    5.5001 H         1 <0>         0.0657
     26 H11         1.1540   -3.1964    5.2365 H         1 <0>         0.0710
     27 H12         2.1232   -5.2752    4.2942 H         1 <0>         0.0494
     28 H13         2.0610   -3.9864    3.0682 H         1 <0>         0.0643
     29 H14         3.6038   -4.3880    3.8598 H         1 <0>         0.0501
     30 H15         2.6748   -2.9951    7.1847 H         1 <0>         0.0522
     31 H16         2.4816   -4.6963    6.6982 H         1 <0>         0.0523
     32 H17         3.9623   -3.8091    6.2637 H         1 <0>         0.0520
@<TRIPOS>BOND
     1    1    2 1
     2    1   17 1
     3    1   18 1
     4    1   19 1
     5    2    3 1
     6    2    4 1
     7    2   14 1
     8    4    9 ar
     9    4    5 ar
    10    5    6 ar
    11    5   20 1
    12    6    7 ar
    13    6   21 1
    14    7    8 ar
    15    7   10 1
    16    8    9 ar
    17    8   22 1
    18    9   23 1
    19   10   11 1
    20   10   24 1
    21   10   25 1
    22   11   12 1
    23   11   13 1
    24   11   26 1
    25   12   27 1
    26   12   28 1
    27   12   29 1
    28   13   30 1
    29   13   31 1
    30   13   32 1
    31   14   15 2
    32   14   16 1
@<TRIPOS>MOLECULE
ZINC03830713
   56    56     0     0     0
SMALL
USER_CHARGES

@<TRIPOS>ATOM
      1 C1          1.1435    1.5780    0.1841 C.3       1 <0>        -0.1534
      2 C2          1.1566    0.0481    0.1856 C.3       1 <0>        -0.1262
      3 C3          1.6249   -0.4592   -1.1798 C.3       1 <0>        -0.1204
      4 C4          1.6381   -1.9892   -1.1783 C.3       1 <0>        -0.1181
      5 C5          2.1064   -2.4965   -2.5437 C.3       1 <0>        -0.1441
      6 C6          2.1195   -4.0264   -2.5422 C.3       1 <0>         0.1339
      7 H1          1.1360   -4.3979   -2.2545 H         1 <0>         0.1099
      8 C7          2.4618   -4.5271   -3.9218 C.2       1 <0>        -0.1807
      9 C8          3.4668   -5.3505   -4.0891 C.2       1 <0>        -0.1418
     10 C9          3.8091   -5.8513   -5.4686 C.3       1 <0>        -0.0473
     11 H2          3.1330   -5.4234   -6.2088 H         1 <0>         0.0978
     12 C10         5.2816   -5.5181   -5.8190 C.3       1 <0>         0.1132
     13 H3          5.9219   -5.6238   -4.9433 H         1 <0>         0.0737
     14 C11         5.6200   -6.5928   -6.8819 C.3       1 <0>        -0.2190
     15 C12         4.9054   -7.8420   -6.3978 C.2       1 <0>         0.3763
     16 O1          5.1958   -8.9826   -6.6680 O.2       1 <0>        -0.4319
     17 C13         3.7574   -7.3925   -5.5141 C.3       1 <0>        -0.1326
     18 H4          3.8794   -7.7992   -4.5102 H         1 <0>         0.1096
     19 C14         2.4245   -7.8537   -6.1072 C.3       1 <0>        -0.0812
     20 C15         2.3350   -9.3562   -6.0335 C.2       1 <0>        -0.1876
     21 C16         1.2888   -9.9240   -5.4864 C.2       1 <0>        -0.1312
     22 C17         0.1019   -9.0874   -5.0835 C.3       1 <0>        -0.1053
     23 C18        -1.1656   -9.6598   -5.7213 C.3       1 <0>        -0.0865
     24 C19        -2.3706   -8.8104   -5.3122 C.3       1 <0>        -0.1829
     25 C20        -3.6190   -9.3742   -5.9404 C.2       1 <0>         0.4875
     26 O2         -3.5513  -10.3637   -6.6495 O.co2     1 <0>        -0.6993
     27 O3         -4.6968   -8.8408   -5.7395 O.co2     1 <0>        -0.7094
     28 O4          5.3883   -4.2031   -6.3682 O.3       1 <0>        -0.5536
     29 O5          3.0966   -4.4935   -1.6099 O.3       1 <0>        -0.5569
     30 H5          2.1483    1.9498   -0.0165 H         1 <0>         0.0521
     31 H6          0.4630    1.9348   -0.5890 H         1 <0>         0.0533
     32 H7          0.8099    1.9395    1.1568 H         1 <0>         0.0523
     33 H8          1.8372   -0.3087    0.9587 H         1 <0>         0.0602
     34 H9          0.1518   -0.3237    0.3862 H         1 <0>         0.0615
     35 H10         0.9444   -0.1024   -1.9529 H         1 <0>         0.0606
     36 H11         2.6297   -0.0874   -1.3804 H         1 <0>         0.0589
     37 H12         2.3186   -2.3459   -0.4052 H         1 <0>         0.0674
     38 H13         0.6333   -2.3609   -0.9777 H         1 <0>         0.0627
     39 H14         1.4258   -2.1397   -3.3168 H         1 <0>         0.0733
     40 H15         3.1112   -2.1247   -2.7443 H         1 <0>         0.0652
     41 H16         1.8785   -4.2072   -4.7725 H         1 <0>         0.1180
     42 H17         4.0501   -5.6705   -3.2383 H         1 <0>         0.1187
     43 H18         5.2429   -6.2932   -7.8597 H         1 <0>         0.1142
     44 H19         6.6961   -6.7616   -6.9233 H         1 <0>         0.0938
     45 H20         1.6034   -7.4127   -5.5421 H         1 <0>         0.0927
     46 H21         2.3609   -7.5366   -7.1481 H         1 <0>         0.0696
     47 H22         3.1333   -9.9650   -6.4317 H         1 <0>         0.1146
     48 H23         1.2770  -10.9917   -5.3242 H         1 <0>         0.1080
     49 H24         0.0002   -9.0999   -3.9984 H         1 <0>         0.0647
     50 H25         0.2482   -8.0620   -5.4230 H         1 <0>         0.0685
     51 H26        -1.0638   -9.6473   -6.8065 H         1 <0>         0.0585
     52 H27        -1.3118  -10.6852   -5.3819 H         1 <0>         0.0589
     53 H28        -2.4724   -8.8229   -4.2271 H         1 <0>         0.0550
     54 H29        -2.2243   -7.7850   -5.6517 H         1 <0>         0.0541
     55 H30         6.2905   -3.9473   -6.6039 H         1 <0>         0.3797
     56 H31         3.9974   -4.2006   -1.8044 H         1 <0>         0.3713
@<TRIPOS>BOND
     1    1    2 1
     2    1   30 1
     3    1   31 1
     4    1   32 1
     5    2    3 1
     6    2   33 1
     7    2   34 1
     8    3    4 1
     9    3   35 1
    10    3   36 1
    11    4    5 1
    12    4   37 1
    13    4   38 1
    14    5    6 1
    15    5   39 1
    16    5   40 1
    17    6    7 1
    18    6    8 1
    19    6   29 1
    20    8    9 2
    21    8   41 1
    22    9   10 1
    23    9   42 1
    24   10   11 1
    25   10   17 1
    26   10   12 1
    27   12   13 1
    28   12   14 1
    29   12   28 1
    30   14   15 1
    31   14   43 1
    32   14   44 1
    33   15   16 2
    34   15   17 1
    35   17   18 1
    36   17   19 1
    37   19   20 1
    38   19   45 1
    39   19   46 1
    40   20   21 2
    41   20   47 1
    42   21   22 1
    43   21   48 1
    44   22   23 1
    45   22   49 1
    46   22   50 1
    47   23   24 1
    48   23   51 1
    49   23   52 1
    50   24   25 1
    51   24   53 1
    52   24   54 1
    53   25   26 2
    54   25   27 1
    55   28   55 1
    56   29   56 1
@<TRIPOS>MOLECULE
ZINC03861782
   45    47     0     0     0
SMALL
USER_CHARGES

@<TRIPOS>ATOM
      1 C1         -0.0187    1.5258    0.0104 C.3       1 <0>        -0.1472
      2 C2          0.0021   -0.0041    0.0020 C.3       1 <0>         0.0958
      3 H1          0.5122   -0.3558   -0.8947 H         1 <0>         0.0815
      4 C3         -1.4324   -0.5336    0.0135 C.3       1 <0>        -0.1221
      5 C4         -1.4365   -2.0220    0.2470 C.ar      1 <0>         0.0004
      6 C5         -2.5344   -2.7758   -0.1257 C.ar      1 <0>        -0.0652
      7 C6         -2.5518   -4.1407    0.0855 C.ar      1 <0>        -0.0222
      8 C7         -1.4606   -4.7783    0.6796 C.ar      1 <0>        -0.1483
      9 C8         -0.3412   -4.0257    1.0613 C.ar      1 <0>         0.2473
     10 C9         -0.3355   -2.6446    0.8399 C.ar      1 <0>        -0.2107
     11 C10         0.8350   -1.8284    1.2254 C.2       1 <0>         0.5360
     12 O1          1.8770   -2.3422    1.5813 O.2       1 <0>        -0.4265
     13 O2          0.6951   -0.4793    1.1639 O.3       1 <0>        -0.3518
     14 O3          0.7240   -4.6298    1.6391 O.3       1 <0>        -0.4543
     15 C11        -1.4855   -6.2363    0.9039 C.2       1 <0>         0.5537
     16 O4         -0.5337   -6.7882    1.4215 O.2       1 <0>        -0.5161
     17 N1         -2.5634   -6.9565    0.5352 N.am      1 <0>        -0.6846
     18 C12        -2.5882   -8.4043    0.7579 C.3       1 <0>         0.0858
     19 H2         -2.0645   -8.6383    1.6848 H         1 <0>         0.0868
     20 C13        -4.0389   -8.8802    0.8577 C.3       1 <0>        -0.0784
     21 C14        -4.6823   -8.2777    2.0800 C.ar      1 <0>        -0.0659
     22 C15        -4.6190   -8.9399    3.2918 C.ar      1 <0>        -0.1157
     23 C16        -5.2092   -8.3872    4.4130 C.ar      1 <0>        -0.1177
     24 C17        -5.8623   -7.1722    4.3225 C.ar      1 <0>        -0.1334
     25 C18        -5.9247   -6.5096    3.1109 C.ar      1 <0>        -0.1194
     26 C19        -5.3308   -7.0602    1.9907 C.ar      1 <0>        -0.1189
     27 C20        -1.9089   -9.1012   -0.3927 C.2       1 <0>         0.4931
     28 O5         -1.3343  -10.1610   -0.2100 O.co2     1 <0>        -0.6890
     29 O6         -1.9338   -8.6054   -1.5062 O.co2     1 <0>        -0.6885
     30 Cl1        -3.9011   -2.0008   -0.8641 Cl        1 <0>        -0.0514
     31 H3          1.0039    1.9031    0.0027 H         1 <0>         0.0728
     32 H4         -0.5459    1.8868   -0.8726 H         1 <0>         0.0836
     33 H5         -0.5289    1.8773    0.9072 H         1 <0>         0.0716
     34 H6         -1.9924   -0.0418    0.8088 H         1 <0>         0.1072
     35 H7         -1.9048   -0.3171   -0.9447 H         1 <0>         0.1096
     36 H8         -3.4150   -4.7185   -0.2103 H         1 <0>         0.1484
     37 H9          1.3922   -4.9348    1.0102 H         1 <0>         0.4091
     38 H10        -3.3228   -6.5163    0.1223 H         1 <0>         0.3881
     39 H11        -4.5857   -8.5679   -0.0320 H         1 <0>         0.0765
     40 H12        -4.0602   -9.9673    0.9343 H         1 <0>         0.0897
     41 H13        -4.1088   -9.8891    3.3625 H         1 <0>         0.1233
     42 H14        -5.1604   -8.9049    5.3596 H         1 <0>         0.1182
     43 H15        -6.3240   -6.7408    5.1984 H         1 <0>         0.1158
     44 H16        -6.4352   -5.5605    3.0402 H         1 <0>         0.1172
     45 H17        -5.3764   -6.5408    1.0449 H         1 <0>         0.1158
@<TRIPOS>BOND
     1    1    2 1
     2    1   31 1
     3    1   32 1
     4    1   33 1
     5    2    3 1
     6    2   13 1
     7    2    4 1
     8    4    5 1
     9    4   34 1
    10    4   35 1
    11    5   10 ar
    12    5    6 ar
    13    6    7 ar
    14    6   30 1
    15    7    8 ar
    16    7   36 1
    17    8    9 ar
    18    8   15 1
    19    9   10 ar
    20    9   14 1
    21   10   11 1
    22   11   12 2
    23   11   13 1
    24   14   37 1
    25   15   16 2
    26   15   17 am
    27   17   18 1
    28   17   38 1
    29   18   19 1
    30   18   20 1
    31   18   27 1
    32   20   21 1
    33   20   39 1
    34   20   40 1
    35   21   26 ar
    36   21   22 ar
    37   22   23 ar
    38   22   41 1
    39   23   24 ar
    40   23   42 1
    41   24   25 ar
    42   24   43 1
    43   25   26 ar
    44   25   44 1
    45   26   45 1
    46   27   28 2
    47   27   29 1
@<TRIPOS>MOLECULE
ZINC00001982
   37    37     0     0     0
SMALL
USER_CHARGES

@<TRIPOS>ATOM
      1 C1         -0.0187    1.5258    0.0104 C.3       1 <0>        -0.1493
      2 C2          0.0021   -0.0041    0.0020 C.3       1 <0>        -0.1528
      3 C3         -1.4333   -0.5336    0.0129 C.3       1 <0>         0.1155
      4 N1         -1.4134   -1.9985    0.0048 N.pl3     1 <0>        -0.9981
      5 C4         -1.2809   -2.7362    1.2636 C.3       1 <0>         0.1234
      6 C5         -2.6603   -2.9046    1.9037 C.3       1 <0>        -0.1449
      7 C6         -2.5218   -3.6750    3.2183 C.3       1 <0>        -0.1497
      8 S1         -1.5408   -2.8204   -1.4271 S.o2      1 <0>         2.6916
      9 O1         -2.0455   -4.1107   -1.1113 O.2       1 <0>        -0.9606
     10 O2         -2.1951   -1.9488   -2.3389 O.2       1 <0>        -0.9631
     11 C7          0.0943   -3.0554   -2.0402 C.ar      1 <0>        -0.6859
     12 C8          0.6632   -2.1026   -2.8669 C.ar      1 <0>        -0.0395
     13 C9          1.9425   -2.2800   -3.3509 C.ar      1 <0>        -0.1070
     14 C10         2.6643   -3.4249   -3.0042 C.ar      1 <0>        -0.0731
     15 C11         2.0836   -4.3825   -2.1688 C.ar      1 <0>        -0.1073
     16 C12         0.8054   -4.1892   -1.6881 C.ar      1 <0>        -0.0399
     17 C13         4.0331   -3.6221   -3.5184 C.2       1 <0>         0.5146
     18 O3          4.5384   -2.7824   -4.2498 O.co2     1 <0>        -0.6774
     19 O4          4.6623   -4.6254   -3.2131 O.co2     1 <0>        -0.6776
     20 H1          1.0039    1.9031    0.0027 H         1 <0>         0.0581
     21 H2         -0.5459    1.8868   -0.8726 H         1 <0>         0.0574
     22 H3         -0.5289    1.8773    0.9072 H         1 <0>         0.0537
     23 H4          0.5123   -0.3556   -0.8948 H         1 <0>         0.0697
     24 H5          0.5293   -0.3651    0.8851 H         1 <0>         0.0680
     25 H6         -1.9435   -0.1821    0.9097 H         1 <0>         0.0816
     26 H7         -1.9605   -0.1726   -0.8702 H         1 <0>         0.0925
     27 H8         -0.8498   -3.7176    1.0659 H         1 <0>         0.0824
     28 H9         -0.6306   -2.1837    1.9418 H         1 <0>         0.0796
     29 H10        -3.0913   -1.9231    2.1014 H         1 <0>         0.0649
     30 H11        -3.3106   -3.4571    1.2255 H         1 <0>         0.0704
     31 H12        -2.0908   -4.6564    3.0206 H         1 <0>         0.0584
     32 H13        -1.8715   -3.1225    3.8965 H         1 <0>         0.0545
     33 H14        -3.5045   -3.7949    3.6744 H         1 <0>         0.0560
     34 H15         0.1041   -1.2180   -3.1340 H         1 <0>         0.1307
     35 H16         2.3850   -1.5359   -3.9965 H         1 <0>         0.1363
     36 H17         2.6358   -5.2699   -1.8968 H         1 <0>         0.1364
     37 H18         0.3568   -4.9263   -1.0387 H         1 <0>         0.1306
@<TRIPOS>BOND
     1    1    2 1
     2    1   20 1
     3    1   21 1
     4    1   22 1
     5    2    3 1
     6    2   23 1
     7    2   24 1
     8    3    4 1
     9    3   25 1
    10    3   26 1
    11    4    5 1
    12    4    8 1
    13    5    6 1
    14    5   27 1
    15    5   28 1
    16    6    7 1
    17    6   29 1
    18    6   30 1
    19    7   31 1
    20    7   32 1
    21    7   33 1
    22    8    9 2
    23    8   10 2
    24    8   11 1
    25   11   16 ar
    26   11   12 ar
    27   12   13 ar
    28   12   34 1
    29   13   14 ar
    30   13   35 1
    31   14   15 ar
    32   14   17 1
    33   15   16 ar
    34   15   36 1
    35   16   37 1
    36   17   18 2
    37   17   19 1
