@<TRIPOS>MOLECULE
ZINC00043989
   42    44     0     0     0
SMALL
USER_CHARGES
cyclopentyl 4-(4-chlorophenyl)-6-methyl-2-oxo-3,4-dihydro-1H-pyrimidine-5-carboxylate
@<TRIPOS>ATOM
      1 C1          1.0582   -2.2501   -0.0216 C.3       1 <0>        -0.1239
      2 C2          1.1486   -0.7458   -0.0134 C.2       1 <0>         0.2582
      3 C3          2.3620   -0.1532   -0.0219 C.2       1 <0>        -0.2839
      4 C4          2.4073    1.3613   -0.0137 C.3       1 <0>         0.2380
      5 H1          2.9728    1.6759    0.8635 H         1 <0>         0.0942
      6 N1          1.1151    2.0674    0.0025 N.am      1 <0>        -0.7107
      7 C5         -0.0161    1.3348    0.0094 C.2       1 <0>         0.7048
      8 O1         -1.0879    1.9082    0.0175 O.2       1 <0>        -0.5585
      9 N2          0.0021   -0.0041    0.0020 N.am      1 <0>        -0.6462
     10 C6          3.1662    1.8100   -1.2359 C.ar      1 <0>        -0.1046
     11 C7          2.5362    1.8454   -2.4660 C.ar      1 <0>        -0.0848
     12 C8          3.2300    2.2622   -3.5863 C.ar      1 <0>        -0.1142
     13 C9          4.5585    2.6333   -3.4786 C.ar      1 <0>        -0.0271
     14 C10         5.1900    2.5923   -2.2483 C.ar      1 <0>        -0.1139
     15 C11         4.4935    2.1807   -1.1276 C.ar      1 <0>        -0.0660
     16 Cl1         5.4328    3.1497   -4.8866 Cl        1 <0>        -0.0689
     17 C12         3.5504   -0.9203   -0.0374 C.2       1 <0>         0.5348
     18 O2          3.4901   -2.1356   -0.0433 O.2       1 <0>        -0.5162
     19 O3          4.7510   -0.3044   -0.0456 O.3       1 <0>        -0.3372
     20 C13         5.9094   -1.1411   -0.0612 C.3       1 <0>         0.0852
     21 C14         6.3935   -1.4002    1.3804 C.3       1 <0>        -0.1414
     22 C15         7.9383   -1.4033    1.2675 C.3       1 <0>        -0.1239
     23 C16         8.2076   -0.2833    0.2320 C.3       1 <0>        -0.1232
     24 C17         7.0628   -0.4310   -0.7914 C.3       1 <0>        -0.1245
     25 H2          0.0106   -2.5512   -0.0134 H         1 <0>         0.0709
     26 H3          1.5407   -2.6382   -0.9186 H         1 <0>         0.1070
     27 H4          1.5577   -2.6489    0.8613 H         1 <0>         0.1077
     28 H5          1.0789    3.0367    0.0078 H         1 <0>         0.4344
     29 H6         -0.8468   -0.4734    0.0076 H         1 <0>         0.4310
     30 H7          1.5004    1.5514   -2.5507 H         1 <0>         0.1220
     31 H8          2.7366    2.2940   -4.5465 H         1 <0>         0.1325
     32 H9          6.2269    2.8823   -2.1635 H         1 <0>         0.1346
     33 H10         4.9865    2.1484   -0.1673 H         1 <0>         0.1377
     34 H11         5.6806   -2.0858   -0.5545 H         1 <0>         0.0865
     35 H12         6.0612   -0.6017    2.0438 H         1 <0>         0.0770
     36 H13         6.0350   -2.3664    1.7354 H         1 <0>         0.0727
     37 H14         8.2967   -2.3644    0.8989 H         1 <0>         0.0702
     38 H15         8.3962   -1.1610    2.2265 H         1 <0>         0.0719
     39 H16         9.1730   -0.4344   -0.2510 H         1 <0>         0.0702
     40 H17         8.1696    0.6964    0.7083 H         1 <0>         0.0698
     41 H18         7.3943   -1.0314   -1.6385 H         1 <0>         0.0757
     42 H19         6.7387    0.5515   -1.1346 H         1 <0>         0.0820
@<TRIPOS>BOND
     1    1    2 1
     2    1   25 1
     3    1   26 1
     4    1   27 1
     5    2    9 1
     6    2    3 2
     7    3    4 1
     8    3   17 1
     9    4    5 1
    10    4    6 1
    11    4   10 1
    12    6    7 am
    13    6   28 1
    14    7    8 2
    15    7    9 am
    16    9   29 1
    17   10   15 ar
    18   10   11 ar
    19   11   12 ar
    20   11   30 1
    21   12   13 ar
    22   12   31 1
    23   13   14 ar
    24   13   16 1
    25   14   15 ar
    26   14   32 1
    27   15   33 1
    28   17   18 2
    29   17   19 1
    30   19   20 1
    31   20   24 1
    32   20   21 1
    33   20   34 1
    34   21   22 1
    35   21   35 1
    36   21   36 1
    37   22   23 1
    38   22   37 1
    39   22   38 1
    40   23   24 1
    41   23   39 1
    42   23   40 1
    43   24   41 1
    44   24   42 1
@<TRIPOS>MOLECULE
ZINC00043990
   42    44     0     0     0
SMALL
USER_CHARGES
cyclopentyl 4-(4-chlorophenyl)-6-methyl-2-oxo-3,4-dihydro-1H-pyrimidine-5-carboxylate
@<TRIPOS>ATOM
      1 C1          4.8851    1.6376   -3.0239 C.3       1 <0>        -0.1242
      2 C2          4.2734    1.6040   -1.6471 C.2       1 <0>         0.2576
      3 C3          3.0454    1.0677   -1.4787 C.2       1 <0>        -0.2836
      4 C4          2.4676    1.0546   -0.0780 C.3       1 <0>         0.2381
      5 H1          2.2514    0.0195    0.1866 H         1 <0>         0.0949
      6 N1          3.2986    1.6318    0.9920 N.am      1 <0>        -0.7108
      7 C5          4.5075    2.1309    0.6666 C.2       1 <0>         0.7048
      8 O1          5.2013    2.6092    1.5427 O.2       1 <0>        -0.5586
      9 N2          4.9695    2.1166   -0.5900 N.am      1 <0>        -0.6462
     10 C6          1.1610    1.8049   -0.1074 C.ar      1 <0>        -0.1056
     11 C7         -0.0332    1.1108   -0.1622 C.ar      1 <0>        -0.0675
     12 C8         -1.2317    1.7985   -0.1944 C.ar      1 <0>        -0.1121
     13 C9         -1.2364    3.1816   -0.1604 C.ar      1 <0>        -0.0276
     14 C10        -0.0409    3.8757   -0.1056 C.ar      1 <0>        -0.1141
     15 C11         1.1572    3.1870   -0.0791 C.ar      1 <0>        -0.0851
     16 Cl1        -2.7416    4.0459   -0.1931 Cl        1 <0>        -0.0689
     17 C12         2.3234    0.5359   -2.5727 C.2       1 <0>         0.5355
     18 O2          2.7584    0.6523   -3.7031 O.2       1 <0>        -0.5156
     19 O3          1.1521   -0.1005   -2.3627 O.3       1 <0>        -0.3384
     20 C13         0.4766   -0.6125   -3.5131 C.3       1 <0>         0.0855
     21 C14        -0.5198    0.4353   -4.0507 C.3       1 <0>        -0.1407
     22 C15        -1.7338   -0.4038   -4.5236 C.3       1 <0>        -0.1236
     23 C16        -1.8225   -1.5146   -3.4479 C.3       1 <0>        -0.1227
     24 C17        -0.3510   -1.8520   -3.1303 C.3       1 <0>        -0.1223
     25 H2          4.2911    2.2844   -3.6697 H         1 <0>         0.1074
     26 H3          5.9025    2.0234   -2.9601 H         1 <0>         0.0712
     27 H4          4.9041    0.6294   -3.4378 H         1 <0>         0.1070
     28 H5          2.9833    1.6526    1.9090 H         1 <0>         0.4344
     29 H6          5.8482    2.4912   -0.7590 H         1 <0>         0.4310
     30 H7         -0.0296    0.0310   -0.1842 H         1 <0>         0.1377
     31 H8         -2.1645    1.2562   -0.2421 H         1 <0>         0.1343
     32 H9         -0.0437    4.9555   -0.0831 H         1 <0>         0.1325
     33 H10         2.0905    3.7287   -0.0367 H         1 <0>         0.1221
     34 H11         1.2001   -0.8710   -4.2864 H         1 <0>         0.0864
     35 H12        -0.8165    1.1217   -3.2577 H         1 <0>         0.0774
     36 H13        -0.0842    0.9822   -4.8869 H         1 <0>         0.0715
     37 H14        -1.5460   -0.8332   -5.5077 H         1 <0>         0.0698
     38 H15        -2.6414    0.1999   -4.5313 H         1 <0>         0.0716
     39 H16        -2.3375   -2.3895   -3.8445 H         1 <0>         0.0703
     40 H17        -2.3296   -1.1435   -2.5572 H         1 <0>         0.0698
     41 H18        -0.0298   -2.7117   -3.7183 H         1 <0>         0.0767
     42 H19        -0.2368   -2.0634   -2.0671 H         1 <0>         0.0802
@<TRIPOS>BOND
     1    1    2 1
     2    1   25 1
     3    1   26 1
     4    1   27 1
     5    2    9 1
     6    2    3 2
     7    3    4 1
     8    3   17 1
     9    4    5 1
    10    4    6 1
    11    4   10 1
    12    6    7 am
    13    6   28 1
    14    7    8 2
    15    7    9 am
    16    9   29 1
    17   10   15 ar
    18   10   11 ar
    19   11   12 ar
    20   11   30 1
    21   12   13 ar
    22   12   31 1
    23   13   14 ar
    24   13   16 1
    25   14   15 ar
    26   14   32 1
    27   15   33 1
    28   17   18 2
    29   17   19 1
    30   19   20 1
    31   20   24 1
    32   20   21 1
    33   20   34 1
    34   21   22 1
    35   21   35 1
    36   21   36 1
    37   22   23 1
    38   22   37 1
    39   22   38 1
    40   23   24 1
    41   23   39 1
    42   23   40 1
    43   24   41 1
    44   24   42 1
@<TRIPOS>MOLECULE
ZINC00124016
   45    47     0     0     0
SMALL
USER_CHARGES
cyclopentyl 4-methyl-2-oxo-6-(p-tolyl)-3,6-dihydro-1H-pyrimidine-5-carboxylate
@<TRIPOS>ATOM
      1 C1         -0.2559    1.5196   -0.0461 C.3       1 <0>        -0.1175
      2 C2         -0.1899    0.0140   -0.0383 C.ar      1 <0>        -0.0779
      3 C3         -0.1350   -0.6816   -1.2317 C.ar      1 <0>        -0.1252
      4 C4         -0.0691   -2.0623   -1.2244 C.ar      1 <0>        -0.0931
      5 C5         -0.0697   -2.7480   -0.0241 C.ar      1 <0>        -0.1156
      6 C6         -0.1299   -2.0527    1.1691 C.ar      1 <0>        -0.0751
      7 C7         -0.1900   -0.6716    1.1620 C.ar      1 <0>        -0.1231
      8 C8         -0.0042   -4.2536   -0.0164 C.3       1 <0>         0.2380
      9 H1          0.2775   -4.5695    0.9881 H         1 <0>         0.0914
     10 C9         -1.3953   -4.7831   -0.2997 C.2       1 <0>        -0.2805
     11 C10        -1.5545   -5.5907   -1.3703 C.2       1 <0>         0.2540
     12 N1         -0.4968   -5.9181   -2.1696 N.am      1 <0>        -0.6466
     13 C11         0.7517   -5.4792   -1.9659 C.2       1 <0>         0.7047
     14 O1          1.6291   -5.8257   -2.7324 O.2       1 <0>        -0.5613
     15 N2          1.0673   -4.6661   -0.9385 N.am      1 <0>        -0.7099
     16 C12        -2.9217   -6.1390   -1.6884 C.3       1 <0>        -0.1233
     17 C13        -2.4900   -4.4436    0.5294 C.2       1 <0>         0.5361
     18 O2         -3.6153   -4.7915    0.2242 O.2       1 <0>        -0.5176
     19 O3         -2.2863   -3.7337    1.6588 O.3       1 <0>        -0.3362
     20 C14        -3.4371   -3.4262    2.4482 C.3       1 <0>         0.0853
     21 C15        -4.0116   -2.0558    2.0335 C.3       1 <0>        -0.1405
     22 C16        -4.4872   -1.4250    3.3667 C.3       1 <0>        -0.1233
     23 C17        -3.3910   -1.8698    4.3664 C.3       1 <0>        -0.1223
     24 C18        -3.0429   -3.3083    3.9310 C.3       1 <0>        -0.1223
     25 H2          0.7546    1.9276   -0.0221 H         1 <0>         0.0712
     26 H3         -0.7624    1.8564   -0.9506 H         1 <0>         0.0658
     27 H4         -0.8075    1.8636    0.8288 H         1 <0>         0.0668
     28 H5         -0.1394   -0.1460   -2.1695 H         1 <0>         0.1197
     29 H6         -0.0218   -2.6056   -2.1566 H         1 <0>         0.1114
     30 H7         -0.1303   -2.5884    2.1069 H         1 <0>         0.1269
     31 H8         -0.2374   -0.1284    2.0942 H         1 <0>         0.1216
     32 H9         -0.6591   -6.5011   -2.9277 H         1 <0>         0.4302
     33 H10         1.9786   -4.3596   -0.8097 H         1 <0>         0.4336
     34 H11        -3.5898   -5.3191   -1.9518 H         1 <0>         0.1065
     35 H12        -2.8492   -6.8321   -2.5266 H         1 <0>         0.0705
     36 H13        -3.3150   -6.6625   -0.8170 H         1 <0>         0.1062
     37 H14        -4.1932   -4.2013    2.3234 H         1 <0>         0.0857
     38 H15        -3.2373   -1.4405    1.5753 H         1 <0>         0.0783
     39 H16        -4.8513   -2.1851    1.3507 H         1 <0>         0.0709
     40 H17        -5.4593   -1.8237    3.6568 H         1 <0>         0.0695
     41 H18        -4.5215   -0.3383    3.2894 H         1 <0>         0.0710
     42 H19        -3.7783   -1.8629    5.3853 H         1 <0>         0.0699
     43 H20        -2.5162   -1.2246    4.2854 H         1 <0>         0.0696
     44 H21        -3.6084   -4.0256    4.5258 H         1 <0>         0.0763
     45 H22        -1.9741   -3.4865    4.0485 H         1 <0>         0.0800
@<TRIPOS>BOND
     1    1    2 1
     2    1   25 1
     3    1   26 1
     4    1   27 1
     5    2    7 ar
     6    2    3 ar
     7    3    4 ar
     8    3   28 1
     9    4    5 ar
    10    4   29 1
    11    5    6 ar
    12    5    8 1
    13    6    7 ar
    14    6   30 1
    15    7   31 1
    16    8    9 1
    17    8   15 1
    18    8   10 1
    19   10   11 2
    20   10   17 1
    21   11   12 1
    22   11   16 1
    23   12   13 am
    24   12   32 1
    25   13   14 2
    26   13   15 am
    27   15   33 1
    28   16   34 1
    29   16   35 1
    30   16   36 1
    31   17   18 2
    32   17   19 1
    33   19   20 1
    34   20   24 1
    35   20   21 1
    36   20   37 1
    37   21   22 1
    38   21   38 1
    39   21   39 1
    40   22   23 1
    41   22   40 1
    42   22   41 1
    43   23   24 1
    44   23   42 1
    45   23   43 1
    46   24   44 1
    47   24   45 1
@<TRIPOS>MOLECULE
ZINC00124027
   45    47     0     0     0
SMALL
USER_CHARGES
cyclopentyl 4-methyl-2-oxo-6-(p-tolyl)-3,6-dihydro-1H-pyrimidine-5-carboxylate
@<TRIPOS>ATOM
      1 C1          3.5096   -0.9570   -0.1542 C.3       1 <0>        -0.1176
      2 C2          2.2316   -0.1594   -0.1113 C.ar      1 <0>        -0.0773
      3 C3          1.0116   -0.8092   -0.0934 C.ar      1 <0>        -0.1248
      4 C4         -0.1606   -0.0777   -0.0540 C.ar      1 <0>        -0.0708
      5 C5         -0.1129    1.3037   -0.0325 C.ar      1 <0>        -0.1138
      6 C6          1.1071    1.9535   -0.0499 C.ar      1 <0>        -0.0929
      7 C7          2.2793    1.2219   -0.0893 C.ar      1 <0>        -0.1256
      8 C8         -1.3910    2.1013    0.0036 C.3       1 <0>         0.2380
      9 H1         -2.1954    1.4281    0.3001 H         1 <0>         0.0899
     10 C9         -1.6804    2.5839   -1.4033 C.2       1 <0>        -0.2807
     11 C10        -1.7917    3.9152   -1.6007 C.2       1 <0>         0.2544
     12 N1         -1.6477    4.7955   -0.5667 N.am      1 <0>        -0.6465
     13 C11        -1.3918    4.4245    0.6942 C.2       1 <0>         0.7046
     14 O1         -1.2802    5.2822    1.5482 O.2       1 <0>        -0.5612
     15 N2         -1.2540    3.1312    1.0473 N.am      1 <0>        -0.7099
     16 C12        -2.0791    4.4378   -2.9846 C.3       1 <0>        -0.1232
     17 C13        -1.8284    1.6709   -2.4736 C.2       1 <0>         0.5349
     18 O2         -2.1556    2.0722   -3.5747 O.2       1 <0>        -0.5180
     19 O3         -1.6066    0.3550   -2.2736 O.3       1 <0>        -0.3333
     20 C14        -1.7746   -0.5097   -3.3988 C.3       1 <0>         0.0846
     21 C15        -3.2126   -1.0677   -3.4264 C.3       1 <0>        -0.1414
     22 C16        -3.0453   -2.5241   -3.9263 C.3       1 <0>        -0.1237
     23 C17        -1.7347   -2.9745   -3.2347 C.3       1 <0>        -0.1228
     24 C18        -0.8349   -1.7221   -3.2769 C.3       1 <0>        -0.1247
     25 H2          3.7937   -1.1324   -1.1918 H         1 <0>         0.0707
     26 H3          4.3009   -0.4027    0.3504 H         1 <0>         0.0658
     27 H4          3.3585   -1.9127    0.3477 H         1 <0>         0.0669
     28 H5          0.9743   -1.8885   -0.1106 H         1 <0>         0.1217
     29 H6         -1.1138   -0.5854   -0.0404 H         1 <0>         0.1258
     30 H7          1.1444    3.0327   -0.0334 H         1 <0>         0.1110
     31 H8          3.2325    1.7296   -0.1029 H         1 <0>         0.1194
     32 H9         -1.7355    5.7427   -0.7563 H         1 <0>         0.4302
     33 H10        -1.0691    2.8846    1.9670 H         1 <0>         0.4336
     34 H11        -3.0491    4.0692   -3.3181 H         1 <0>         0.1081
     35 H12        -2.0913    5.5276   -2.9662 H         1 <0>         0.0703
     36 H13        -1.3046    4.0948   -3.6706 H         1 <0>         0.1047
     37 H14        -1.5662    0.0331   -4.3208 H         1 <0>         0.0856
     38 H15        -3.6460   -1.0550   -2.4264 H         1 <0>         0.0766
     39 H16        -3.8306   -0.4954   -4.1183 H         1 <0>         0.0724
     40 H17        -2.9386   -2.5504   -5.0108 H         1 <0>         0.0700
     41 H18        -3.8839   -3.1417   -3.6045 H         1 <0>         0.0716
     42 H19        -1.2741   -3.7938   -3.7867 H         1 <0>         0.0696
     43 H20        -1.9275   -3.2711   -2.2037 H         1 <0>         0.0695
     44 H21        -0.1710   -1.7682   -4.1401 H         1 <0>         0.0744
     45 H22        -0.2501   -1.6505   -2.3598 H         1 <0>         0.0838
@<TRIPOS>BOND
     1    1    2 1
     2    1   25 1
     3    1   26 1
     4    1   27 1
     5    2    7 ar
     6    2    3 ar
     7    3    4 ar
     8    3   28 1
     9    4    5 ar
    10    4   29 1
    11    5    6 ar
    12    5    8 1
    13    6    7 ar
    14    6   30 1
    15    7   31 1
    16    8    9 1
    17    8   15 1
    18    8   10 1
    19   10   11 2
    20   10   17 1
    21   11   12 1
    22   11   16 1
    23   12   13 am
    24   12   32 1
    25   13   14 2
    26   13   15 am
    27   15   33 1
    28   16   34 1
    29   16   35 1
    30   16   36 1
    31   17   18 2
    32   17   19 1
    33   19   20 1
    34   20   24 1
    35   20   21 1
    36   20   37 1
    37   21   22 1
    38   21   38 1
    39   21   39 1
    40   22   23 1
    41   22   40 1
    42   22   41 1
    43   23   24 1
    44   23   42 1
    45   23   43 1
    46   24   44 1
    47   24   45 1
@<TRIPOS>MOLECULE
ZINC03905768
   44    45     0     0     0
SMALL
USER_CHARGES
2-ethylsulfanylethyl 4-methyl-6-(4-nitrophenyl)-2-oxo-3,6-dihydro-1H-pyrimidine-5-carboxylate
@<TRIPOS>ATOM
      1 C1         -2.4077   10.3812    0.0774 C.3       1 <0>        -0.1391
      2 C2         -2.4328    8.8515    0.0699 C.3       1 <0>        -0.0859
      3 S1         -0.7328    8.2188    0.0508 S.3       1 <0>        -0.2417
      4 C3         -0.9355    6.4162    0.0436 C.3       1 <0>        -0.0961
      5 C4          0.4410    5.7483    0.0274 C.3       1 <0>         0.0860
      6 O1          0.2813    4.3283    0.0217 O.3       1 <0>        -0.3491
      7 C5          1.4077    3.5852    0.0074 C.2       1 <0>         0.5373
      8 O2          2.4958    4.1298   -0.0000 O.2       1 <0>        -0.5074
      9 C6          1.3234    2.1732    0.0011 C.2       1 <0>        -0.2924
     10 C7          2.4357    1.4075   -0.0141 C.2       1 <0>         0.2703
     11 N1          2.3530    0.0444   -0.0202 N.am      1 <0>        -0.6445
     12 C8          1.1959   -0.6293   -0.0127 C.2       1 <0>         0.7054
     13 O3          1.2231   -1.8446   -0.0191 O.2       1 <0>        -0.5512
     14 N2          0.0021   -0.0041    0.0020 N.am      1 <0>        -0.7126
     15 C9         -0.0179    1.4684    0.0101 C.3       1 <0>         0.2350
     16 H1         -0.5617    1.7922    0.8976 H         1 <0>         0.1027
     17 C10        -0.7929    1.9291   -1.1974 C.ar      1 <0>        -0.0587
     18 C11        -0.6345    1.2820   -2.4086 C.ar      1 <0>        -0.0988
     19 C12        -1.3490    1.7016   -3.5151 C.ar      1 <0>        -0.0559
     20 C13        -2.2142    2.7749   -3.4129 C.ar      1 <0>        -0.0378
     21 C14        -2.3687    3.4253   -2.2029 C.ar      1 <0>        -0.0581
     22 C15        -1.6581    3.0024   -1.0952 C.ar      1 <0>        -0.0801
     23 N3         -2.9747    3.2281   -4.5991 N.pl3     1 <0>         0.0259
     24 O4         -3.7367    4.1740   -4.5091 O.2       1 <0>        -0.1567
     25 O5         -2.8386    2.6550   -5.6652 O.3       1 <0>        -0.1572
     26 C16         3.7903    2.0679   -0.0244 C.3       1 <0>        -0.1273
     27 H2         -1.8796   10.7316    0.9642 H         1 <0>         0.0662
     28 H3         -1.8963   10.7406   -0.8156 H         1 <0>         0.0667
     29 H4         -3.4292   10.7614    0.0889 H         1 <0>         0.0758
     30 H5         -2.9609    8.5011   -0.8169 H         1 <0>         0.0845
     31 H6         -2.9442    8.4921    0.9629 H         1 <0>         0.0835
     32 H7         -1.4950    6.1170   -0.8427 H         1 <0>         0.0912
     33 H8         -1.4783    6.1080    0.9372 H         1 <0>         0.0938
     34 H9          1.0005    6.0475    0.9137 H         1 <0>         0.0810
     35 H10         0.9838    6.0565   -0.8662 H         1 <0>         0.0788
     36 H11         3.1788   -0.4643   -0.0308 H         1 <0>         0.4335
     37 H12        -0.8244   -0.5119    0.0075 H         1 <0>         0.4364
     38 H13         0.0447    0.4463   -2.4895 H         1 <0>         0.1396
     39 H14        -1.2281    1.1937   -4.4605 H         1 <0>         0.1543
     40 H15        -3.0443    4.2641   -2.1231 H         1 <0>         0.1534
     41 H16        -1.7785    3.5108   -0.1499 H         1 <0>         0.1552
     42 H17         4.5671    1.3035   -0.0362 H         1 <0>         0.0741
     43 H18         3.8827    2.6936   -0.9122 H         1 <0>         0.1094
     44 H19         3.9007    2.6845    0.8676 H         1 <0>         0.1106
@<TRIPOS>BOND
     1    1    2 1
     2    1   27 1
     3    1   28 1
     4    1   29 1
     5    2    3 1
     6    2   30 1
     7    2   31 1
     8    3    4 1
     9    4    5 1
    10    4   32 1
    11    4   33 1
    12    5    6 1
    13    5   34 1
    14    5   35 1
    15    6    7 1
    16    7    8 2
    17    7    9 1
    18    9   15 1
    19    9   10 2
    20   10   11 1
    21   10   26 1
    22   11   12 am
    23   11   36 1
    24   12   13 2
    25   12   14 am
    26   14   15 1
    27   14   37 1
    28   15   16 1
    29   15   17 1
    30   17   22 ar
    31   17   18 ar
    32   18   19 ar
    33   18   38 1
    34   19   20 ar
    35   19   39 1
    36   20   21 ar
    37   20   23 1
    38   21   22 ar
    39   21   40 1
    40   22   41 1
    41   23   24 2
    42   23   25 1
    43   26   42 1
    44   26   43 1
    45   26   44 1
@<TRIPOS>MOLECULE
ZINC03905769
   44    45     0     0     0
SMALL
USER_CHARGES
2-ethylsulfanylethyl 4-methyl-6-(4-nitrophenyl)-2-oxo-3,6-dihydro-1H-pyrimidine-5-carboxylate
@<TRIPOS>ATOM
      1 C1          8.3831   -6.6524   -0.2153 C.3       1 <0>        -0.1392
      2 C2          6.9912   -6.0215   -0.1409 C.3       1 <0>        -0.0858
      3 S1          7.1406   -4.2156   -0.2253 S.3       1 <0>        -0.2416
      4 C3          5.4272   -3.6284   -0.1260 C.3       1 <0>        -0.0960
      5 C4          5.4076   -2.0997   -0.1869 C.3       1 <0>         0.0864
      6 O1          4.0578   -1.6372   -0.1087 O.3       1 <0>        -0.3497
      7 C5          3.8643   -0.3023   -0.1492 C.2       1 <0>         0.5379
      8 O2          4.8172    0.4478   -0.2484 O.2       1 <0>        -0.5071
      9 C6          2.5537    0.2250   -0.0764 C.2       1 <0>        -0.2922
     10 C7          2.3401    1.5559    0.0052 C.2       1 <0>         0.2698
     11 N1          1.0744    2.0636    0.0760 N.am      1 <0>        -0.6445
     12 C8         -0.0304    1.3071    0.0704 C.2       1 <0>         0.7054
     13 O3         -1.1158    1.8511    0.1319 O.2       1 <0>        -0.5512
     14 N2          0.0214   -0.0374   -0.0066 N.am      1 <0>        -0.7127
     15 C9          1.3417   -0.6845   -0.0869 C.3       1 <0>         0.2350
     16 H1          1.4305   -1.3724    0.7539 H         1 <0>         0.1035
     17 C10         1.3838   -1.4987   -1.3543 C.ar      1 <0>        -0.0590
     18 C11         0.8171   -1.0028   -2.5135 C.ar      1 <0>        -0.0991
     19 C12         0.8603   -1.7474   -3.6774 C.ar      1 <0>        -0.0553
     20 C13         1.4601   -2.9928   -3.6793 C.ar      1 <0>        -0.0382
     21 C14         2.0222   -3.4910   -2.5187 C.ar      1 <0>        -0.0570
     22 C15         1.9840   -2.7439   -1.3563 C.ar      1 <0>        -0.0844
     23 N3          1.5010   -3.7927   -4.9240 N.pl3     1 <0>         0.0258
     24 O4          2.0299   -4.8899   -4.9257 O.2       1 <0>        -0.1563
     25 O5          1.0058   -3.3538   -5.9466 O.3       1 <0>        -0.1571
     26 C16         3.5177    2.4962    0.0186 C.3       1 <0>        -0.1276
     27 H2          8.8600   -6.3707   -1.1541 H         1 <0>         0.0668
     28 H3          8.9876   -6.2983    0.6198 H         1 <0>         0.0663
     29 H4          8.2934   -7.7375   -0.1645 H         1 <0>         0.0757
     30 H5          6.5144   -6.3031    0.7980 H         1 <0>         0.0835
     31 H6          6.3867   -6.3755   -0.9759 H         1 <0>         0.0844
     32 H7          4.9832   -3.9603    0.8126 H         1 <0>         0.0940
     33 H8          4.8555   -4.0327   -0.9613 H         1 <0>         0.0915
     34 H9          5.8515   -1.7678   -1.1255 H         1 <0>         0.0788
     35 H10         5.9792   -1.6954    0.6484 H         1 <0>         0.0810
     36 H11         0.9698    3.0262    0.1331 H         1 <0>         0.4335
     37 H12        -0.7918   -0.5663   -0.0088 H         1 <0>         0.4364
     38 H13         0.3442   -0.0318   -2.5109 H         1 <0>         0.1400
     39 H14         0.4215   -1.3580   -4.5842 H         1 <0>         0.1546
     40 H15         2.4908   -4.4640   -2.5202 H         1 <0>         0.1541
     41 H16         2.4228   -3.1333   -0.4495 H         1 <0>         0.1556
     42 H17         4.0671    2.4038   -0.9183 H         1 <0>         0.1109
     43 H18         3.1634    3.5207    0.1325 H         1 <0>         0.0744
     44 H19         4.1744    2.2442    0.8513 H         1 <0>         0.1087
@<TRIPOS>BOND
     1    1    2 1
     2    1   27 1
     3    1   28 1
     4    1   29 1
     5    2    3 1
     6    2   30 1
     7    2   31 1
     8    3    4 1
     9    4    5 1
    10    4   32 1
    11    4   33 1
    12    5    6 1
    13    5   34 1
    14    5   35 1
    15    6    7 1
    16    7    8 2
    17    7    9 1
    18    9   15 1
    19    9   10 2
    20   10   11 1
    21   10   26 1
    22   11   12 am
    23   11   36 1
    24   12   13 2
    25   12   14 am
    26   14   15 1
    27   14   37 1
    28   15   16 1
    29   15   17 1
    30   17   22 ar
    31   17   18 ar
    32   18   19 ar
    33   18   38 1
    34   19   20 ar
    35   19   39 1
    36   20   21 ar
    37   20   23 1
    38   21   22 ar
    39   21   40 1
    40   22   41 1
    41   23   24 2
    42   23   25 1
    43   26   42 1
    44   26   43 1
    45   26   44 1
@<TRIPOS>MOLECULE
ZINC00039356
   46    48     0     0     0
SMALL
USER_CHARGES
cyclopentyl 4-(4-methoxyphenyl)-6-methyl-2-oxo-3,4-dihydro-1H-pyrimidine-5-carboxylate
@<TRIPOS>ATOM
      1 C1          1.0582   -2.2501   -0.0211 C.3       1 <0>        -0.1229
      2 C2          1.1486   -0.7458   -0.0134 C.2       1 <0>         0.2534
      3 C3          2.3620   -0.1532   -0.0223 C.2       1 <0>        -0.2801
      4 C4          2.4073    1.3613   -0.0141 C.3       1 <0>         0.2417
      5 H1          2.9731    1.6759    0.8628 H         1 <0>         0.0912
      6 N1          1.1151    2.0674    0.0025 N.am      1 <0>        -0.7101
      7 C5         -0.0161    1.3348    0.0094 C.2       1 <0>         0.7042
      8 O1         -1.0879    1.9082    0.0175 O.2       1 <0>        -0.5618
      9 N2          0.0021   -0.0041    0.0020 N.am      1 <0>        -0.6467
     10 C6          3.1657    1.8101   -1.2366 C.ar      1 <0>        -0.1468
     11 C7          2.5343    1.8451   -2.4662 C.ar      1 <0>        -0.0559
     12 C8          3.2257    2.2615   -3.5874 C.ar      1 <0>        -0.2125
     13 C9          4.5578    2.6338   -3.4809 C.ar      1 <0>         0.1351
     14 C10         5.1907    2.5924   -2.2470 C.ar      1 <0>        -0.1553
     15 C11         4.4933    2.1806   -1.1278 C.ar      1 <0>        -0.0383
     16 O2          5.2416    3.0389   -4.5832 O.3       1 <0>        -0.3170
     17 C12         4.5263    3.0566   -5.8202 C.3       1 <0>         0.0267
     18 C13         3.5504   -0.9203   -0.0392 C.2       1 <0>         0.5355
     19 O3          3.4900   -2.1356   -0.0460 O.2       1 <0>        -0.5182
     20 O4          4.7510   -0.3044   -0.0479 O.3       1 <0>        -0.3353
     21 C14         5.9093   -1.1411   -0.0649 C.3       1 <0>         0.0851
     22 C15         6.3945   -1.4012    1.3762 C.3       1 <0>        -0.1414
     23 C16         7.9392   -1.4042    1.2622 C.3       1 <0>        -0.1238
     24 C17         8.2078   -0.2835    0.2273 C.3       1 <0>        -0.1230
     25 C18         7.0622   -0.4304   -0.7953 C.3       1 <0>        -0.1249
     26 H2          0.0106   -2.5512   -0.0126 H         1 <0>         0.0698
     27 H3          1.5406   -2.6385   -0.9180 H         1 <0>         0.1060
     28 H4          1.5579   -2.6486    0.8618 H         1 <0>         0.1069
     29 H5          1.0789    3.0367    0.0078 H         1 <0>         0.4336
     30 H6         -0.8468   -0.4734    0.0076 H         1 <0>         0.4301
     31 H7          1.4984    1.5509   -2.5494 H         1 <0>         0.1145
     32 H8          2.7308    2.2929   -4.5468 H         1 <0>         0.1265
     33 H9          6.2276    2.8821   -2.1614 H         1 <0>         0.1315
     34 H10         4.9856    2.1479   -0.1671 H         1 <0>         0.1346
     35 H11         4.1709    2.0518   -6.0488 H         1 <0>         0.0554
     36 H12         3.6755    3.7331   -5.7383 H         1 <0>         0.0559
     37 H13         5.1868    3.3984   -6.6170 H         1 <0>         0.1013
     38 H14         5.6802   -2.0854   -0.5587 H         1 <0>         0.0858
     39 H15         6.0626   -0.6032    2.0404 H         1 <0>         0.0770
     40 H16         6.0363   -2.3676    1.7308 H         1 <0>         0.0723
     41 H17         8.2974   -2.3651    0.8927 H         1 <0>         0.0698
     42 H18         8.3978   -1.1626    2.2210 H         1 <0>         0.0716
     43 H19         9.1728   -0.4343   -0.2565 H         1 <0>         0.0697
     44 H20         8.1701    0.6959    0.7043 H         1 <0>         0.0700
     45 H21         7.3932   -1.0303   -1.6431 H         1 <0>         0.0748
     46 H22         6.7379    0.5523   -1.1376 H         1 <0>         0.0839
@<TRIPOS>BOND
     1    1    2 1
     2    1   26 1
     3    1   27 1
     4    1   28 1
     5    2    9 1
     6    2    3 2
     7    3    4 1
     8    3   18 1
     9    4    5 1
    10    4    6 1
    11    4   10 1
    12    6    7 am
    13    6   29 1
    14    7    8 2
    15    7    9 am
    16    9   30 1
    17   10   15 ar
    18   10   11 ar
    19   11   12 ar
    20   11   31 1
    21   12   13 ar
    22   12   32 1
    23   13   14 ar
    24   13   16 1
    25   14   15 ar
    26   14   33 1
    27   15   34 1
    28   16   17 1
    29   17   35 1
    30   17   36 1
    31   17   37 1
    32   18   19 2
    33   18   20 1
    34   20   21 1
    35   21   25 1
    36   21   22 1
    37   21   38 1
    38   22   23 1
    39   22   39 1
    40   22   40 1
    41   23   24 1
    42   23   41 1
    43   23   42 1
    44   24   25 1
    45   24   43 1
    46   24   44 1
    47   25   45 1
    48   25   46 1
@<TRIPOS>MOLECULE
ZINC00039357
   46    48     0     0     0
SMALL
USER_CHARGES
cyclopentyl 4-(4-methoxyphenyl)-6-methyl-2-oxo-3,4-dihydro-1H-pyrimidine-5-carboxylate
@<TRIPOS>ATOM
      1 C1         -5.0029    3.3037   -2.9231 C.3       1 <0>        -0.1234
      2 C2         -4.3658    3.3239   -1.5575 C.2       1 <0>         0.2540
      3 C3         -3.1357    3.8605   -1.4063 C.2       1 <0>        -0.2808
      4 C4         -2.5320    3.8599   -0.0165 C.3       1 <0>         0.2423
      5 H1         -2.3125    4.8925    0.2550 H         1 <0>         0.0909
      6 N1         -3.3422    3.2700    1.0625 N.am      1 <0>        -0.7101
      7 C5         -4.5561    2.7723    0.7545 C.2       1 <0>         0.7044
      8 O1         -5.2327    2.2836    1.6382 O.2       1 <0>        -0.5612
      9 N2         -5.0414    2.7990   -0.4932 N.am      1 <0>        -0.6465
     10 C6         -1.2251    3.1121   -0.0780 C.ar      1 <0>        -0.1481
     11 C7         -1.2199    1.7295   -0.0701 C.ar      1 <0>        -0.0570
     12 C8         -0.0229    1.0418   -0.1211 C.ar      1 <0>        -0.1560
     13 C9          1.1741    1.7395   -0.1915 C.ar      1 <0>         0.1347
     14 C10         1.1660    3.1268   -0.2046 C.ar      1 <0>        -0.2099
     15 C11        -0.0334    3.8099   -0.1476 C.ar      1 <0>        -0.0385
     16 O2          2.3527    1.0652   -0.2479 O.3       1 <0>        -0.3177
     17 C12         3.5456    1.8487   -0.3188 C.3       1 <0>         0.0270
     18 C13        -2.4349    4.4050   -2.5078 C.2       1 <0>         0.5365
     19 O3         -2.8906    4.2996   -3.6311 O.2       1 <0>        -0.5174
     20 O4         -1.2611    5.0414   -2.3128 O.3       1 <0>        -0.3371
     21 C14        -0.6078    5.5666   -3.4702 C.3       1 <0>         0.0854
     22 C15         0.3803    4.5264   -4.0370 C.3       1 <0>        -0.1407
     23 C16         1.5839    5.3725   -4.5235 C.3       1 <0>        -0.1234
     24 C17         1.6906    6.4722   -3.4379 C.3       1 <0>        -0.1222
     25 C18         0.2247    6.8035   -3.0897 C.3       1 <0>        -0.1223
     26 H2         -4.4200    2.6649   -3.5865 H         1 <0>         0.1066
     27 H3         -6.0184    2.9154   -2.8445 H         1 <0>         0.0704
     28 H4         -5.0312    4.3162   -3.3258 H         1 <0>         0.1060
     29 H5         -3.0098    3.2401    1.9733 H         1 <0>         0.4337
     30 H6         -5.9222    2.4241   -0.6499 H         1 <0>         0.4302
     31 H7         -2.1523    1.1867   -0.0203 H         1 <0>         0.1190
     32 H8         -0.0192   -0.0381   -0.1108 H         1 <0>         0.1293
     33 H9          2.0965    3.6722   -0.2596 H         1 <0>         0.1284
     34 H10        -0.0403    4.8898   -0.1578 H         1 <0>         0.1300
     35 H11         3.5201    2.4692   -1.2146 H         1 <0>         0.0560
     36 H12         3.6147    2.4860    0.5628 H         1 <0>         0.0563
     37 H13         4.4121    1.1886   -0.3587 H         1 <0>         0.1006
     38 H14        -1.3459    5.8318   -4.2271 H         1 <0>         0.0862
     39 H15         0.6926    3.8322   -3.2569 H         1 <0>         0.0772
     40 H16        -0.0699    3.9874   -4.8707 H         1 <0>         0.0715
     41 H17         1.3772    5.8119   -5.4994 H         1 <0>         0.0701
     42 H18         2.4922    4.7707   -4.5542 H         1 <0>         0.0704
     43 H19         2.1967    7.3522   -3.8348 H         1 <0>         0.0701
     44 H20         2.2147    6.0928   -2.5608 H         1 <0>         0.0684
     45 H21        -0.1088    7.6687   -3.6627 H         1 <0>         0.0767
     46 H22         0.1298    7.0037   -2.0225 H         1 <0>         0.0800
@<TRIPOS>BOND
     1    1    2 1
     2    1   26 1
     3    1   27 1
     4    1   28 1
     5    2    9 1
     6    2    3 2
     7    3    4 1
     8    3   18 1
     9    4    5 1
    10    4    6 1
    11    4   10 1
    12    6    7 am
    13    6   29 1
    14    7    8 2
    15    7    9 am
    16    9   30 1
    17   10   15 ar
    18   10   11 ar
    19   11   12 ar
    20   11   31 1
    21   12   13 ar
    22   12   32 1
    23   13   14 ar
    24   13   16 1
    25   14   15 ar
    26   14   33 1
    27   15   34 1
    28   16   17 1
    29   17   35 1
    30   17   36 1
    31   17   37 1
    32   18   19 2
    33   18   20 1
    34   20   21 1
    35   21   25 1
    36   21   22 1
    37   21   38 1
    38   22   23 1
    39   22   39 1
    40   22   40 1
    41   23   24 1
    42   23   41 1
    43   23   42 1
    44   24   25 1
    45   24   43 1
    46   24   44 1
    47   25   45 1
    48   25   46 1
@<TRIPOS>MOLECULE
ZINC04578150
   38    39     0     0     0
SMALL
USER_CHARGES
allyl 4-methyl-6-(4-nitrophenyl)-2-oxo-3,6-dihydro-1H-pyrimidine-5-carboxylate
@<TRIPOS>ATOM
      1 C1          0.8590    0.2311    4.8303 C.3       1 <0>        -0.1432
      2 C2         -0.3137    1.1760    4.7741 C.2       1 <0>         0.2688
      3 C3         -0.6293    1.7742    3.6052 C.2       1 <0>        -0.2914
      4 C4         -1.8121    2.7212    3.5944 C.3       1 <0>         0.2346
      5 H1         -2.5271    2.3574    2.8566 H         1 <0>         0.1029
      6 N1         -2.5323    2.9035    4.8659 N.am      1 <0>        -0.7120
      7 C5         -2.0958    2.2355    5.9519 C.2       1 <0>         0.7053
      8 O1         -2.6802    2.3834    7.0075 O.2       1 <0>        -0.5521
      9 N2         -1.0396    1.4137    5.9060 N.am      1 <0>        -0.6455
     10 C6         -1.3229    4.0703    3.1341 C.ar      1 <0>        -0.0591
     11 C7         -0.6824    4.9134    4.0228 C.ar      1 <0>        -0.0982
     12 C8         -0.2290    6.1486    3.5992 C.ar      1 <0>        -0.0565
     13 C9         -0.4262    6.5455    2.2898 C.ar      1 <0>        -0.0387
     14 C10        -1.0714    5.7045    1.4024 C.ar      1 <0>        -0.0538
     15 C11        -1.5197    4.4669    1.8246 C.ar      1 <0>        -0.0811
     16 N3          0.0539    7.8706    1.8377 N.pl3     1 <0>         0.0260
     17 O2         -0.1195    8.2201    0.6839 O.2       1 <0>        -0.1553
     18 O3          0.6224    8.6116    2.6196 O.3       1 <0>        -0.1589
     19 C12         0.1224    1.5296    2.4321 C.2       1 <0>         0.5359
     20 O4          1.1436    0.8705    2.4903 O.2       1 <0>        -0.5107
     21 O5         -0.2930    2.0271    1.2486 O.3       1 <0>        -0.3457
     22 C13         0.5148    1.7410    0.1051 C.3       1 <0>         0.0966
     23 C14        -0.1014    2.3733   -1.1162 C.2       1 <0>        -0.1653
     24 C15         0.6515    3.0270   -1.9659 C.2       1 <0>        -0.1623
     25 H2          1.7770    0.7997    4.9789 H         1 <0>         0.1039
     26 H3          0.7250   -0.4654    5.6580 H         1 <0>         0.0763
     27 H4          0.9231   -0.3245    3.8947 H         1 <0>         0.1251
     28 H5         -3.3002    3.4936    4.9214 H         1 <0>         0.4361
     29 H6         -0.7755    0.9617    6.7226 H         1 <0>         0.4332
     30 H7         -0.5325    4.6053    5.0470 H         1 <0>         0.1380
     31 H8          0.2754    6.8055    4.2923 H         1 <0>         0.1538
     32 H9         -1.2255    6.0145    0.3794 H         1 <0>         0.1557
     33 H10        -2.0241    3.8100    1.1314 H         1 <0>         0.1539
     34 H11         0.5757    0.6619   -0.0360 H         1 <0>         0.0793
     35 H12         1.5159    2.1446    0.2572 H         1 <0>         0.0726
     36 H13        -1.1637    2.2875   -1.2910 H         1 <0>         0.1214
     37 H14         0.2099    3.4801   -2.8411 H         1 <0>         0.1107
     38 H15         1.7138    3.1128   -1.7912 H         1 <0>         0.0998
@<TRIPOS>BOND
     1    1    2 1
     2    1   25 1
     3    1   26 1
     4    1   27 1
     5    2    9 1
     6    2    3 2
     7    3    4 1
     8    3   19 1
     9    4    5 1
    10    4    6 1
    11    4   10 1
    12    6    7 am
    13    6   28 1
    14    7    8 2
    15    7    9 am
    16    9   29 1
    17   10   15 ar
    18   10   11 ar
    19   11   12 ar
    20   11   30 1
    21   12   13 ar
    22   12   31 1
    23   13   14 ar
    24   13   16 1
    25   14   15 ar
    26   14   32 1
    27   15   33 1
    28   16   17 2
    29   16   18 1
    30   19   20 2
    31   19   21 1
    32   21   22 1
    33   22   23 1
    34   22   34 1
    35   22   35 1
    36   23   24 2
    37   23   36 1
    38   24   37 1
    39   24   38 1
@<TRIPOS>MOLECULE
ZINC04578151
   38    39     0     0     0
SMALL
USER_CHARGES
allyl 4-methyl-6-(4-nitrophenyl)-2-oxo-3,6-dihydro-1H-pyrimidine-5-carboxylate
@<TRIPOS>ATOM
      1 C1          3.7903    2.0679   -0.0244 C.3       1 <0>        -0.1264
      2 C2          2.4357    1.4075   -0.0141 C.2       1 <0>         0.2684
      3 C3          1.3234    2.1732    0.0011 C.2       1 <0>        -0.2916
      4 C4         -0.0179    1.4684    0.0101 C.3       1 <0>         0.2347
      5 H1         -0.5617    1.7922    0.8976 H         1 <0>         0.1030
      6 N1          0.0021   -0.0041    0.0020 N.am      1 <0>        -0.7125
      7 C5          1.1959   -0.6293   -0.0127 C.2       1 <0>         0.7053
      8 O1          1.2231   -1.8446   -0.0191 O.2       1 <0>        -0.5518
      9 N2          2.3530    0.0444   -0.0202 N.am      1 <0>        -0.6448
     10 C6         -0.7929    1.9291   -1.1974 C.ar      1 <0>        -0.0594
     11 C7         -0.6345    1.2820   -2.4086 C.ar      1 <0>        -0.0995
     12 C8         -1.3490    1.7016   -3.5151 C.ar      1 <0>        -0.0570
     13 C9         -2.2142    2.7749   -3.4129 C.ar      1 <0>        -0.0384
     14 C10        -2.3687    3.4253   -2.2029 C.ar      1 <0>        -0.0574
     15 C11        -1.6581    3.0024   -1.0952 C.ar      1 <0>        -0.0786
     16 N3         -2.9747    3.2281   -4.5991 N.pl3     1 <0>         0.0260
     17 O2         -3.7367    4.1740   -4.5091 O.2       1 <0>        -0.1561
     18 O3         -2.8386    2.6550   -5.6652 O.3       1 <0>        -0.1587
     19 C12         1.4077    3.5852    0.0074 C.2       1 <0>         0.5347
     20 O4          2.4958    4.1298   -0.0000 O.2       1 <0>        -0.5115
     21 O5          0.2813    4.3283    0.0217 O.3       1 <0>        -0.3463
     22 C13         0.4410    5.7483    0.0274 C.3       1 <0>         0.0958
     23 C14        -0.9148    6.4062    0.0434 C.2       1 <0>        -0.1662
     24 C15        -1.1463    7.4098    0.8529 C.2       1 <0>        -0.1615
     25 H2          4.5671    1.3035   -0.0362 H         1 <0>         0.0736
     26 H3          3.8827    2.6936   -0.9122 H         1 <0>         0.1089
     27 H4          3.9007    2.6845    0.8676 H         1 <0>         0.1100
     28 H5         -0.8244   -0.5119    0.0075 H         1 <0>         0.4363
     29 H6          3.1788   -0.4643   -0.0308 H         1 <0>         0.4332
     30 H7          0.0447    0.4463   -2.4895 H         1 <0>         0.1390
     31 H8         -1.2281    1.1937   -4.4605 H         1 <0>         0.1537
     32 H9         -3.0443    4.2641   -2.1231 H         1 <0>         0.1548
     33 H10        -1.7785    3.5108   -0.1499 H         1 <0>         0.1573
     34 H11         1.0005    6.0475    0.9137 H         1 <0>         0.0752
     35 H12         0.9838    6.0565   -0.8662 H         1 <0>         0.0774
     36 H13        -1.6955    6.0502   -0.6125 H         1 <0>         0.1192
     37 H14        -0.3656    7.7657    1.5087 H         1 <0>         0.1011
     38 H15        -2.1179    7.8812    0.8643 H         1 <0>         0.1103
@<TRIPOS>BOND
     1    1    2 1
     2    1   25 1
     3    1   26 1
     4    1   27 1
     5    2    9 1
     6    2    3 2
     7    3    4 1
     8    3   19 1
     9    4    5 1
    10    4    6 1
    11    4   10 1
    12    6    7 am
    13    6   28 1
    14    7    8 2
    15    7    9 am
    16    9   29 1
    17   10   15 ar
    18   10   11 ar
    19   11   12 ar
    20   11   30 1
    21   12   13 ar
    22   12   31 1
    23   13   14 ar
    24   13   16 1
    25   14   15 ar
    26   14   32 1
    27   15   33 1
    28   16   17 2
    29   16   18 1
    30   19   20 2
    31   19   21 1
    32   21   22 1
    33   22   23 1
    34   22   34 1
    35   22   35 1
    36   23   24 2
    37   23   36 1
    38   24   37 1
    39   24   38 1
@<TRIPOS>MOLECULE
ZINC00757965
   42    44     0     0     0
SMALL
USER_CHARGES
cyclopentyl 4-(4-bromophenyl)-6-methyl-2-oxo-3,4-dihydro-1H-pyrimidine-5-carboxylate
@<TRIPOS>ATOM
      1 C1          1.0582   -2.2501   -0.0216 C.3       1 <0>        -0.1240
      2 C2          1.1486   -0.7458   -0.0134 C.2       1 <0>         0.2587
      3 C3          2.3620   -0.1532   -0.0219 C.2       1 <0>        -0.2842
      4 C4          2.4073    1.3613   -0.0137 C.3       1 <0>         0.2369
      5 H1          2.9728    1.6759    0.8635 H         1 <0>         0.0947
      6 N1          1.1151    2.0674    0.0025 N.am      1 <0>        -0.7107
      7 C5         -0.0161    1.3348    0.0094 C.2       1 <0>         0.7049
      8 O1         -1.0879    1.9082    0.0175 O.2       1 <0>        -0.5581
      9 N2          0.0021   -0.0041    0.0020 N.am      1 <0>        -0.6462
     10 C6          3.1662    1.8100   -1.2359 C.ar      1 <0>        -0.0932
     11 C7          2.5363    1.8453   -2.4660 C.ar      1 <0>        -0.0916
     12 C8          3.2305    2.2614   -3.5865 C.ar      1 <0>        -0.0944
     13 C9          4.5587    2.6324   -3.4787 C.ar      1 <0>        -0.0829
     14 C10         5.1900    2.5919   -2.2485 C.ar      1 <0>        -0.0941
     15 C11         4.4935    2.1808   -1.1277 C.ar      1 <0>        -0.0728
     16 Br1         5.5113    3.1943   -5.0126 Br        1 <0>        -0.0497
     17 C12         3.5504   -0.9203   -0.0374 C.2       1 <0>         0.5347
     18 O2          3.4901   -2.1356   -0.0433 O.2       1 <0>        -0.5160
     19 O3          4.7510   -0.3044   -0.0456 O.3       1 <0>        -0.3372
     20 C13         5.9094   -1.1411   -0.0612 C.3       1 <0>         0.0852
     21 C14         6.3935   -1.4002    1.3804 C.3       1 <0>        -0.1414
     22 C15         7.9383   -1.4033    1.2675 C.3       1 <0>        -0.1238
     23 C16         8.2076   -0.2833    0.2320 C.3       1 <0>        -0.1231
     24 C17         7.0628   -0.4310   -0.7914 C.3       1 <0>        -0.1243
     25 H2          0.0106   -2.5512   -0.0134 H         1 <0>         0.0710
     26 H3          1.5407   -2.6382   -0.9186 H         1 <0>         0.1071
     27 H4          1.5577   -2.6489    0.8613 H         1 <0>         0.1078
     28 H5          1.0789    3.0367    0.0078 H         1 <0>         0.4345
     29 H6         -0.8468   -0.4734    0.0076 H         1 <0>         0.4311
     30 H7          1.5004    1.5517   -2.5508 H         1 <0>         0.1218
     31 H8          2.7373    2.2926   -4.5467 H         1 <0>         0.1318
     32 H9          6.2269    2.8819   -2.1638 H         1 <0>         0.1339
     33 H10         4.9865    2.1488   -0.1673 H         1 <0>         0.1375
     34 H11         5.6806   -2.0858   -0.5545 H         1 <0>         0.0865
     35 H12         6.0612   -0.6017    2.0438 H         1 <0>         0.0769
     36 H13         6.0350   -2.3664    1.7354 H         1 <0>         0.0727
     37 H14         8.2967   -2.3644    0.8989 H         1 <0>         0.0703
     38 H15         8.3962   -1.1610    2.2265 H         1 <0>         0.0719
     39 H16         9.1730   -0.4344   -0.2510 H         1 <0>         0.0703
     40 H17         8.1696    0.6964    0.7083 H         1 <0>         0.0698
     41 H18         7.3943   -1.0314   -1.6385 H         1 <0>         0.0758
     42 H19         6.7387    0.5515   -1.1346 H         1 <0>         0.0817
@<TRIPOS>BOND
     1    1    2 1
     2    1   25 1
     3    1   26 1
     4    1   27 1
     5    2    9 1
     6    2    3 2
     7    3    4 1
     8    3   17 1
     9    4    5 1
    10    4    6 1
    11    4   10 1
    12    6    7 am
    13    6   28 1
    14    7    8 2
    15    7    9 am
    16    9   29 1
    17   10   15 ar
    18   10   11 ar
    19   11   12 ar
    20   11   30 1
    21   12   13 ar
    22   12   31 1
    23   13   14 ar
    24   13   16 1
    25   14   15 ar
    26   14   32 1
    27   15   33 1
    28   17   18 2
    29   17   19 1
    30   19   20 1
    31   20   24 1
    32   20   21 1
    33   20   34 1
    34   21   22 1
    35   21   35 1
    36   21   36 1
    37   22   23 1
    38   22   37 1
    39   22   38 1
    40   23   24 1
    41   23   39 1
    42   23   40 1
    43   24   41 1
    44   24   42 1
@<TRIPOS>MOLECULE
ZINC00757966
   42    44     0     0     0
SMALL
USER_CHARGES
cyclopentyl 4-(4-bromophenyl)-6-methyl-2-oxo-3,4-dihydro-1H-pyrimidine-5-carboxylate
@<TRIPOS>ATOM
      1 C1          4.8851    1.6380   -3.0239 C.3       1 <0>        -0.1243
      2 C2          4.2734    1.6042   -1.6471 C.2       1 <0>         0.2581
      3 C3          3.0455    1.0679   -1.4787 C.2       1 <0>        -0.2839
      4 C4          2.4677    1.0547   -0.0780 C.3       1 <0>         0.2369
      5 H1          2.2515    0.0196    0.1866 H         1 <0>         0.0954
      6 N1          3.2986    1.6320    0.9920 N.am      1 <0>        -0.7108
      7 C5          4.5075    2.1312    0.6666 C.2       1 <0>         0.7049
      8 O1          5.2012    2.6095    1.5427 O.2       1 <0>        -0.5582
      9 N2          4.9695    2.1170   -0.5900 N.am      1 <0>        -0.6462
     10 C6          1.1610    1.8049   -0.1074 C.ar      1 <0>        -0.0942
     11 C7         -0.0332    1.1108   -0.1622 C.ar      1 <0>        -0.0744
     12 C8         -1.2317    1.7985   -0.1944 C.ar      1 <0>        -0.0923
     13 C9         -1.2364    3.1814   -0.1613 C.ar      1 <0>        -0.0834
     14 C10        -0.0412    3.8755   -0.1060 C.ar      1 <0>        -0.0942
     15 C11         1.1570    3.1870   -0.0791 C.ar      1 <0>        -0.0919
     16 Br1        -2.8761    4.1228   -0.1976 Br        1 <0>        -0.0496
     17 C12         2.3235    0.5360   -2.5727 C.2       1 <0>         0.5353
     18 O2          2.7585    0.6525   -3.7031 O.2       1 <0>        -0.5154
     19 O3          1.1523   -0.1005   -2.3627 O.3       1 <0>        -0.3384
     20 C13         0.4768   -0.6126   -3.5132 C.3       1 <0>         0.0855
     21 C14        -0.5197    0.4352   -4.0508 C.3       1 <0>        -0.1406
     22 C15        -1.7337   -0.4040   -4.5237 C.3       1 <0>        -0.1236
     23 C16        -1.8222   -1.5148   -3.4479 C.3       1 <0>        -0.1227
     24 C17        -0.3508   -1.8520   -3.1303 C.3       1 <0>        -0.1223
     25 H2          4.2910    2.2846   -3.6697 H         1 <0>         0.1075
     26 H3          5.9025    2.0239   -2.9601 H         1 <0>         0.0713
     27 H4          4.9042    0.6298   -3.4378 H         1 <0>         0.1070
     28 H5          2.9833    1.6528    1.9090 H         1 <0>         0.4345
     29 H6          5.8481    2.4916   -0.7590 H         1 <0>         0.4311
     30 H7         -0.0296    0.0310   -0.1842 H         1 <0>         0.1375
     31 H8         -2.1645    1.2562   -0.2414 H         1 <0>         0.1337
     32 H9         -0.0443    4.9553   -0.0836 H         1 <0>         0.1319
     33 H10         2.0902    3.7289   -0.0363 H         1 <0>         0.1219
     34 H11         1.2003   -0.8709   -4.2864 H         1 <0>         0.0864
     35 H12        -0.8164    1.1216   -3.2577 H         1 <0>         0.0772
     36 H13        -0.0841    0.9821   -4.8869 H         1 <0>         0.0715
     37 H14        -1.5458   -0.8334   -5.5077 H         1 <0>         0.0698
     38 H15        -2.6413    0.1996   -4.5313 H         1 <0>         0.0718
     39 H16        -2.3371   -2.3898   -3.8445 H         1 <0>         0.0704
     40 H17        -2.3293   -1.1437   -2.5572 H         1 <0>         0.0698
     41 H18        -0.0295   -2.7117   -3.7184 H         1 <0>         0.0767
     42 H19        -0.2365   -2.0635   -2.0671 H         1 <0>         0.0801
@<TRIPOS>BOND
     1    1    2 1
     2    1   25 1
     3    1   26 1
     4    1   27 1
     5    2    9 1
     6    2    3 2
     7    3    4 1
     8    3   17 1
     9    4    5 1
    10    4    6 1
    11    4   10 1
    12    6    7 am
    13    6   28 1
    14    7    8 2
    15    7    9 am
    16    9   29 1
    17   10   15 ar
    18   10   11 ar
    19   11   12 ar
    20   11   30 1
    21   12   13 ar
    22   12   31 1
    23   13   14 ar
    24   13   16 1
    25   14   15 ar
    26   14   32 1
    27   15   33 1
    28   17   18 2
    29   17   19 1
    30   19   20 1
    31   20   24 1
    32   20   21 1
    33   20   34 1
    34   21   22 1
    35   21   35 1
    36   21   36 1
    37   22   23 1
    38   22   37 1
    39   22   38 1
    40   23   24 1
    41   23   39 1
    42   23   40 1
    43   24   41 1
    44   24   42 1
@<TRIPOS>MOLECULE
ZINC04380837
   41    42     0     0     0
SMALL
USER_CHARGES
but-2-enyl 4-methyl-6-(4-nitrophenyl)-2-oxo-3,6-dihydro-1H-pyrimidine-5-carboxylate
@<TRIPOS>ATOM
      1 C1         -1.5179   -4.3651    1.1947 C.3       1 <0>        -0.1304
      2 C2         -1.7308   -2.8739    1.1475 C.2       1 <0>        -0.1298
      3 C3         -1.0578   -2.1429    0.2939 C.2       1 <0>        -0.1744
      4 C4         -1.2708   -0.6517    0.2467 C.3       1 <0>         0.1011
      5 O1         -0.0051    0.0082    0.1781 O.3       1 <0>        -0.3450
      6 C5         -0.0192    1.3567    0.1292 C.2       1 <0>         0.5345
      7 O2         -1.0789    1.9548    0.1393 O.2       1 <0>        -0.5122
      8 C6          1.1976    2.0747    0.0602 C.2       1 <0>        -0.2912
      9 C7          1.2089    3.4159   -0.0976 C.2       1 <0>         0.2673
     10 N1          2.3843    4.1084   -0.1593 N.am      1 <0>        -0.6450
     11 C8          3.5905    3.5322   -0.0816 C.2       1 <0>         0.7053
     12 O3          4.5819    4.2322   -0.1509 O.2       1 <0>        -0.5521
     13 N2          3.7412    2.2017    0.0713 N.am      1 <0>        -0.7121
     14 C9          2.5327    1.3644    0.1544 C.3       1 <0>         0.2346
     15 H1          2.5611    0.8266    1.1021 H         1 <0>         0.1015
     16 C10         2.5966    0.3463   -0.9548 C.ar      1 <0>        -0.0567
     17 C11         2.9104    0.7442   -2.2410 C.ar      1 <0>        -0.0977
     18 C12         2.9738   -0.1904   -3.2575 C.ar      1 <0>        -0.0572
     19 C13         2.7131   -1.5213   -2.9900 C.ar      1 <0>        -0.0379
     20 C14         2.3942   -1.9184   -1.7049 C.ar      1 <0>        -0.0565
     21 C15         2.3360   -0.9846   -0.6873 C.ar      1 <0>        -0.0756
     22 N3          2.7750   -2.5212   -4.0797 N.pl3     1 <0>         0.0261
     23 O4          2.5449   -3.6938   -3.8441 O.2       1 <0>        -0.1562
     24 O5          3.0560   -2.1713   -5.2120 O.3       1 <0>        -0.1590
     25 C16        -0.0968    4.1610   -0.2020 C.3       1 <0>        -0.1265
     26 H2         -2.1601   -4.7997    1.9608 H         1 <0>         0.0652
     27 H3         -1.7645   -4.7982    0.2253 H         1 <0>         0.0699
     28 H4         -0.4752   -4.5758    1.4322 H         1 <0>         0.0706
     29 H5         -2.4383   -2.4080    1.8174 H         1 <0>         0.1118
     30 H6         -0.3504   -2.6088   -0.3760 H         1 <0>         0.1185
     31 H7         -1.7993   -0.3316    1.1446 H         1 <0>         0.0736
     32 H8         -1.8616   -0.3968   -0.6331 H         1 <0>         0.0759
     33 H9          2.3431    5.0712   -0.2696 H         1 <0>         0.4331
     34 H10         4.6248    1.8052    0.1256 H         1 <0>         0.4361
     35 H11         3.1098    1.7847   -2.4508 H         1 <0>         0.1375
     36 H12         3.2226    0.1199   -4.2616 H         1 <0>         0.1534
     37 H13         2.1902   -2.9582   -1.4960 H         1 <0>         0.1547
     38 H14         2.0865   -1.2948    0.3166 H         1 <0>         0.1530
     39 H15        -0.6629    4.0332    0.7207 H         1 <0>         0.1111
     40 H16         0.1014    5.2207   -0.3628 H         1 <0>         0.0736
     41 H17        -0.6735    3.7681   -1.0394 H         1 <0>         0.1073
@<TRIPOS>BOND
     1    1    2 1
     2    1   26 1
     3    1   27 1
     4    1   28 1
     5    2    3 2
     6    2   29 1
     7    3    4 1
     8    3   30 1
     9    4    5 1
    10    4   31 1
    11    4   32 1
    12    5    6 1
    13    6    7 2
    14    6    8 1
    15    8   14 1
    16    8    9 2
    17    9   10 1
    18    9   25 1
    19   10   11 am
    20   10   33 1
    21   11   12 2
    22   11   13 am
    23   13   14 1
    24   13   34 1
    25   14   15 1
    26   14   16 1
    27   16   21 ar
    28   16   17 ar
    29   17   18 ar
    30   17   35 1
    31   18   19 ar
    32   18   36 1
    33   19   20 ar
    34   19   22 1
    35   20   21 ar
    36   20   37 1
    37   21   38 1
    38   22   23 2
    39   22   24 1
    40   25   39 1
    41   25   40 1
    42   25   41 1
@<TRIPOS>MOLECULE
ZINC04380838
   41    42     0     0     0
SMALL
USER_CHARGES
but-2-enyl 4-methyl-6-(4-nitrophenyl)-2-oxo-3,6-dihydro-1H-pyrimidine-5-carboxylate
@<TRIPOS>ATOM
      1 C1          5.2709    0.3441    6.8997 C.3       1 <0>        -0.1303
      2 C2          4.7213    0.2467    5.4999 C.2       1 <0>        -0.1296
      3 C3          3.9403    1.1905    5.0358 C.2       1 <0>        -0.1749
      4 C4          3.3907    1.0932    3.6359 C.3       1 <0>         0.1010
      5 O1          2.0004    1.4234    3.6460 O.3       1 <0>        -0.3449
      6 C5          1.3529    1.3844    2.4628 C.2       1 <0>         0.5345
      7 O2          1.9539    1.0779    1.4501 O.2       1 <0>        -0.5123
      8 C6         -0.0246    1.6997    2.3996 C.2       1 <0>        -0.2910
      9 C7         -0.7187    1.5691    1.2486 C.2       1 <0>         0.2671
     10 N1         -2.0475    1.8783    1.1879 N.am      1 <0>        -0.6450
     11 C8         -2.7570    2.3144    2.2363 C.2       1 <0>         0.7053
     12 O3         -3.9381    2.5595    2.0859 O.2       1 <0>        -0.5522
     13 N2         -2.2033    2.4954    3.4516 N.am      1 <0>        -0.7121
     14 C9         -0.7717    2.1951    3.6213 C.3       1 <0>         0.2347
     15 H1         -0.2777    3.1009    3.9729 H         1 <0>         0.1014
     16 C10        -0.6415    1.1512    4.7004 C.ar      1 <0>        -0.0569
     17 C11        -1.4543    0.0333    4.6823 C.ar      1 <0>        -0.0986
     18 C12        -1.3312   -0.9268    5.6692 C.ar      1 <0>        -0.0573
     19 C13        -0.4031   -0.7634    6.6806 C.ar      1 <0>        -0.0382
     20 C14         0.4061    0.3571    6.7016 C.ar      1 <0>        -0.0533
     21 C15         0.2869    1.3144    5.7115 C.ar      1 <0>        -0.0750
     22 N3         -0.2755   -1.7885    7.7407 N.pl3     1 <0>         0.0264
     23 O4          0.5425   -1.6447    8.6316 O.2       1 <0>        -0.1559
     24 O5         -0.9886   -2.7758    7.7222 O.3       1 <0>        -0.1599
     25 C16        -0.0141    1.0799    0.0095 C.3       1 <0>        -0.1264
     26 H2          5.8945   -0.5257    7.1065 H         1 <0>         0.0653
     27 H3          5.8691    1.2505    6.9930 H         1 <0>         0.0695
     28 H4          4.4467    0.3779    7.6122 H         1 <0>         0.0715
     29 H5          4.9713   -0.6011    4.8794 H         1 <0>         0.1102
     30 H6          3.6903    2.0384    5.6563 H         1 <0>         0.1205
     31 H7          3.5200    0.0765    3.2647 H         1 <0>         0.0709
     32 H8          3.9244    1.7875    2.9870 H         1 <0>         0.0781
     33 H9         -2.5038    1.7723    0.3385 H         1 <0>         0.4331
     34 H10        -2.7353    2.8156    4.1969 H         1 <0>         0.4361
     35 H11        -2.1827   -0.0921    3.8948 H         1 <0>         0.1373
     36 H12        -1.9632   -1.8025    5.6526 H         1 <0>         0.1531
     37 H13         1.1312    0.4848    7.4917 H         1 <0>         0.1542
     38 H14         0.9189    2.1901    5.7281 H         1 <0>         0.1519
     39 H15         0.4261    0.1020    0.2041 H         1 <0>         0.1071
     40 H16         0.7716    1.7843   -0.2636 H         1 <0>         0.1111
     41 H17        -0.7305    0.9997   -0.8081 H         1 <0>         0.0735
@<TRIPOS>BOND
     1    1    2 1
     2    1   26 1
     3    1   27 1
     4    1   28 1
     5    2    3 2
     6    2   29 1
     7    3    4 1
     8    3   30 1
     9    4    5 1
    10    4   31 1
    11    4   32 1
    12    5    6 1
    13    6    7 2
    14    6    8 1
    15    8   14 1
    16    8    9 2
    17    9   10 1
    18    9   25 1
    19   10   11 am
    20   10   33 1
    21   11   12 2
    22   11   13 am
    23   13   14 1
    24   13   34 1
    25   14   15 1
    26   14   16 1
    27   16   21 ar
    28   16   17 ar
    29   17   18 ar
    30   17   35 1
    31   18   19 ar
    32   18   36 1
    33   19   20 ar
    34   19   22 1
    35   20   21 ar
    36   20   37 1
    37   21   38 1
    38   22   23 2
    39   22   24 1
    40   25   39 1
    41   25   40 1
    42   25   41 1
@<TRIPOS>MOLECULE
ZINC00044019
   44    46     0     0     0
SMALL
USER_CHARGES
cyclopentyl 4-methyl-6-(4-nitrophenyl)-2-oxo-3,6-dihydro-1H-pyrimidine-5-carboxylate
@<TRIPOS>ATOM
      1 C1         -1.5717   -6.1464    2.9751 C.3       1 <0>        -0.1261
      2 C2         -1.2638   -5.6031    1.6036 C.2       1 <0>         0.2658
      3 C3         -0.2087   -4.7766    1.4379 C.2       1 <0>        -0.2909
      4 C4          0.0647   -4.2530    0.0425 C.3       1 <0>         0.2347
      5 H1          1.0750   -4.5520   -0.2366 H         1 <0>         0.1023
      6 N1         -0.8492   -4.6916   -1.0256 N.am      1 <0>        -0.7123
      7 C5         -1.8610   -5.5215   -0.7035 C.2       1 <0>         0.7054
      8 O1         -2.6206   -5.8897   -1.5781 O.2       1 <0>        -0.5523
      9 N2         -2.0566   -5.9542    0.5485 N.am      1 <0>        -0.6454
     10 C6          0.0282   -2.7474    0.0959 C.ar      1 <0>        -0.0579
     11 C7          1.2080   -2.0289    0.1505 C.ar      1 <0>        -0.0803
     12 C8          1.1745   -0.6478    0.1995 C.ar      1 <0>        -0.0552
     13 C9         -0.0386    0.0148    0.1938 C.ar      1 <0>        -0.0382
     14 C10        -1.2185   -0.7038    0.1445 C.ar      1 <0>        -0.0566
     15 C11        -1.1849   -2.0847    0.0898 C.ar      1 <0>        -0.0978
     16 N3         -0.0744    1.4936    0.2467 N.pl3     1 <0>         0.0260
     17 O2          0.9650    2.1266    0.2952 O.2       1 <0>        -0.1554
     18 O3         -1.1432    2.0777    0.2366 O.3       1 <0>        -0.1590
     19 C12         0.6135   -4.4125    2.5298 C.2       1 <0>         0.5338
     20 O4          0.3148   -4.7571    3.6579 O.2       1 <0>        -0.5117
     21 O5          1.7292   -3.6829    2.3204 O.3       1 <0>        -0.3425
     22 C13         2.5124   -3.3511    3.4687 C.3       1 <0>         0.0856
     23 C14         2.0716   -1.9843    4.0321 C.3       1 <0>        -0.1410
     24 C15         3.3924   -1.3244    4.5027 C.3       1 <0>        -0.1242
     25 C16         4.4006   -1.7589    3.4101 C.3       1 <0>        -0.1234
     26 C17         3.9927   -3.2081    3.0737 C.3       1 <0>        -0.1224
     27 H2         -1.8508   -5.3262    3.6366 H         1 <0>         0.1090
     28 H3         -2.3964   -6.8559    2.9081 H         1 <0>         0.0733
     29 H4         -0.6905   -6.6500    3.3726 H         1 <0>         0.1088
     30 H5         -0.7261   -4.3901   -1.9393 H         1 <0>         0.4359
     31 H6         -2.8034   -6.5502    0.7155 H         1 <0>         0.4329
     32 H7          2.1558   -2.5466    0.1553 H         1 <0>         0.1535
     33 H8          2.0962   -0.0866    0.2425 H         1 <0>         0.1553
     34 H9         -2.1664   -0.1863    0.1445 H         1 <0>         0.1536
     35 H10        -2.1066   -2.6460    0.0467 H         1 <0>         0.1378
     36 H11         2.4022   -4.1223    4.2310 H         1 <0>         0.0884
     37 H12         1.6019   -1.3841    3.2529 H         1 <0>         0.0728
     38 H13         1.3912   -2.1198    4.8729 H         1 <0>         0.0726
     39 H14         3.6898   -1.7096    5.4780 H         1 <0>         0.0714
     40 H15         3.2944   -0.2391    4.5283 H         1 <0>         0.0727
     41 H16         5.4191   -1.7294    3.7974 H         1 <0>         0.0721
     42 H17         4.3075   -1.1224    2.5302 H         1 <0>         0.0703
     43 H18         4.6010   -3.9094    3.6449 H         1 <0>         0.0782
     44 H19         4.1138   -3.3927    2.0063 H         1 <0>         0.0805
@<TRIPOS>BOND
     1    1    2 1
     2    1   27 1
     3    1   28 1
     4    1   29 1
     5    2    9 1
     6    2    3 2
     7    3    4 1
     8    3   19 1
     9    4    5 1
    10    4    6 1
    11    4   10 1
    12    6    7 am
    13    6   30 1
    14    7    8 2
    15    7    9 am
    16    9   31 1
    17   10   15 ar
    18   10   11 ar
    19   11   12 ar
    20   11   32 1
    21   12   13 ar
    22   12   33 1
    23   13   14 ar
    24   13   16 1
    25   14   15 ar
    26   14   34 1
    27   15   35 1
    28   16   17 2
    29   16   18 1
    30   19   20 2
    31   19   21 1
    32   21   22 1
    33   22   26 1
    34   22   23 1
    35   22   36 1
    36   23   24 1
    37   23   37 1
    38   23   38 1
    39   24   25 1
    40   24   39 1
    41   24   40 1
    42   25   26 1
    43   25   41 1
    44   25   42 1
    45   26   43 1
    46   26   44 1
@<TRIPOS>MOLECULE
ZINC00180701
   37    38     0     0     0
SMALL
USER_CHARGES

@<TRIPOS>ATOM
      1 C1         -0.0001    1.3979    1.0127 C.3       1 <0>        -0.1542
      2 C2          0.0046   -0.1217    0.8352 C.3       1 <0>         0.0632
      3 O1         -1.3319   -0.5806    0.6223 O.3       1 <0>        -0.3501
      4 C3         -1.5034   -1.9075    0.4464 C.2       1 <0>         0.5353
      5 O2         -0.5428   -2.6539    0.4734 O.2       1 <0>        -0.5112
      6 C4         -2.7998   -2.4306    0.2307 C.2       1 <0>        -0.2914
      7 C5         -2.9845   -3.7307   -0.0846 C.2       1 <0>         0.2679
      8 N1         -4.2366   -4.2346   -0.2921 N.am      1 <0>        -0.6457
      9 C6         -5.3552   -3.5039   -0.2037 C.2       1 <0>         0.7054
     10 O3         -6.4263   -4.0418   -0.4060 O.2       1 <0>        -0.5523
     11 N2         -5.3322   -2.1917    0.1026 N.am      1 <0>        -0.7121
     12 C7         -4.0289   -1.5528    0.3517 C.3       1 <0>         0.2346
     13 H1         -3.9231   -0.7276   -0.3525 H         1 <0>         0.1027
     14 C8         -4.0494   -0.9711    1.7418 C.ar      1 <0>        -0.0590
     15 C9         -4.5011   -1.7328    2.8032 C.ar      1 <0>        -0.0977
     16 C10        -4.5198   -1.1992    4.0783 C.ar      1 <0>        -0.0565
     17 C11        -4.0864    0.0959    4.2920 C.ar      1 <0>        -0.0433
     18 C12        -3.6338    0.8573    3.2307 C.ar      1 <0>        -0.0560
     19 C13        -3.6110    0.3222    1.9563 C.ar      1 <0>        -0.0824
     20 N3         -4.1073    0.6675    5.6572 N.pl3     1 <0>         0.0315
     21 O4         -4.5036    0.0018    6.5853 O.2       1 <0>        -0.1574
     22 O5         -3.7282    1.8002    5.8441 O.3       1 <0>        -0.1548
     23 C14        -1.7893   -4.6401   -0.2098 C.3       1 <0>        -0.1429
     24 H2          1.0193    1.7479    1.1751 H         1 <0>         0.0812
     25 H3         -0.4070    1.8671    0.1168 H         1 <0>         0.0679
     26 H4         -0.6161    1.6614    1.8725 H         1 <0>         0.0657
     27 H5          0.6205   -0.3852   -0.0246 H         1 <0>         0.0694
     28 H6          0.4114   -0.5909    1.7310 H         1 <0>         0.0671
     29 H7         -4.3204   -5.1746   -0.5164 H         1 <0>         0.4331
     30 H8         -6.1548   -1.6810    0.1611 H         1 <0>         0.4360
     31 H9         -4.8398   -2.7447    2.6362 H         1 <0>         0.1378
     32 H10        -4.8735   -1.7941    4.9075 H         1 <0>         0.1538
     33 H11        -3.2955    1.8692    3.3977 H         1 <0>         0.1557
     34 H12        -3.2539    0.9158    1.1277 H         1 <0>         0.1542
     35 H13        -1.5118   -5.0134    0.7759 H         1 <0>         0.1037
     36 H14        -2.0379   -5.4794   -0.8594 H         1 <0>         0.0761
     37 H15        -0.9538   -4.0853   -0.6367 H         1 <0>         0.1250
@<TRIPOS>BOND
     1    1    2 1
     2    1   24 1
     3    1   25 1
     4    1   26 1
     5    2    3 1
     6    2   27 1
     7    2   28 1
     8    3    4 1
     9    4    5 2
    10    4    6 1
    11    6   12 1
    12    6    7 2
    13    7    8 1
    14    7   23 1
    15    8    9 am
    16    8   29 1
    17    9   10 2
    18    9   11 am
    19   11   12 1
    20   11   30 1
    21   12   13 1
    22   12   14 1
    23   14   19 ar
    24   14   15 ar
    25   15   16 ar
    26   15   31 1
    27   16   17 ar
    28   16   32 1
    29   17   18 ar
    30   17   20 1
    31   18   19 ar
    32   18   33 1
    33   19   34 1
    34   20   21 2
    35   20   22 1
    36   23   35 1
    37   23   36 1
    38   23   37 1
@<TRIPOS>MOLECULE
ZINC00180705
   37    38     0     0     0
SMALL
USER_CHARGES

@<TRIPOS>ATOM
      1 C1         -0.0048    1.3890    1.0692 C.3       1 <0>        -0.1541
      2 C2          0.0018   -0.1279    0.8695 C.3       1 <0>         0.0627
      3 O1         -1.3343   -0.5856    0.6521 O.3       1 <0>        -0.3488
      4 C3         -1.5042   -1.9100    0.4571 C.2       1 <0>         0.5348
      5 O2         -0.5425   -2.6553    0.4716 O.2       1 <0>        -0.5113
      6 C4         -2.8002   -2.4319    0.2359 C.2       1 <0>        -0.2917
      7 C5         -2.9845   -3.7307   -0.0846 C.2       1 <0>         0.2681
      8 N1         -4.2362   -4.2334   -0.2974 N.am      1 <0>        -0.6456
      9 C6         -5.3547   -3.5026   -0.2095 C.2       1 <0>         0.7054
     10 O3         -6.4255   -4.0393   -0.4167 O.2       1 <0>        -0.5523
     11 N2         -5.3321   -2.1915    0.1017 N.am      1 <0>        -0.7123
     12 C7         -4.0293   -1.5540    0.3568 C.3       1 <0>         0.2348
     13 H1         -4.0467   -1.1369    1.3637 H         1 <0>         0.1012
     14 C8         -3.8799   -0.4096   -0.6123 C.ar      1 <0>        -0.0569
     15 C9         -4.1696   -0.5953   -1.9511 C.ar      1 <0>        -0.0980
     16 C10        -4.0326    0.4545   -2.8400 C.ar      1 <0>        -0.0573
     17 C11        -3.6063    1.6901   -2.3899 C.ar      1 <0>        -0.0432
     18 C12        -3.3175    1.8760   -1.0509 C.ar      1 <0>        -0.0564
     19 C13        -3.4586    0.8274   -0.1613 C.ar      1 <0>        -0.0760
     20 N3         -3.4586    2.8139   -3.3419 N.pl3     1 <0>         0.0317
     21 O4         -3.7108    2.6512   -4.5130 O.2       1 <0>        -0.1582
     22 O5         -3.0858    3.8945   -2.9482 O.3       1 <0>        -0.1554
     23 C14        -1.7893   -4.6401   -0.2098 C.3       1 <0>        -0.1431
     24 H2          1.0144    1.7381    1.2351 H         1 <0>         0.0812
     25 H3         -0.4138    1.8706    0.1810 H         1 <0>         0.0649
     26 H4         -0.6197    1.6390    1.9338 H         1 <0>         0.0677
     27 H5          0.6167   -0.3779    0.0050 H         1 <0>         0.0670
     28 H6          0.4108   -0.6095    1.7577 H         1 <0>         0.0696
     29 H7         -4.3198   -5.1725   -0.5254 H         1 <0>         0.4331
     30 H8         -6.1547   -1.6807    0.1598 H         1 <0>         0.4360
     31 H9         -4.5026   -1.5606   -2.3027 H         1 <0>         0.1373
     32 H10        -4.2582    0.3093   -3.8861 H         1 <0>         0.1531
     33 H11        -2.9841    2.8412   -0.6994 H         1 <0>         0.1549
     34 H12        -3.2366    0.9736    0.8854 H         1 <0>         0.1521
     35 H13        -1.5118   -5.0134    0.7759 H         1 <0>         0.1046
     36 H14        -2.0379   -5.4794   -0.8594 H         1 <0>         0.0757
     37 H15        -0.9538   -4.0853   -0.6367 H         1 <0>         0.1247
@<TRIPOS>BOND
     1    1    2 1
     2    1   24 1
     3    1   25 1
     4    1   26 1
     5    2    3 1
     6    2   27 1
     7    2   28 1
     8    3    4 1
     9    4    5 2
    10    4    6 1
    11    6   12 1
    12    6    7 2
    13    7    8 1
    14    7   23 1
    15    8    9 am
    16    8   29 1
    17    9   10 2
    18    9   11 am
    19   11   12 1
    20   11   30 1
    21   12   13 1
    22   12   14 1
    23   14   19 ar
    24   14   15 ar
    25   15   16 ar
    26   15   31 1
    27   16   17 ar
    28   16   32 1
    29   17   18 ar
    30   17   20 1
    31   18   19 ar
    32   18   33 1
    33   19   34 1
    34   20   21 2
    35   20   22 1
    36   23   35 1
    37   23   36 1
    38   23   37 1
@<TRIPOS>MOLECULE
ZINC05003033
   46    47     0     0     0
SMALL
USER_CHARGES

@<TRIPOS>ATOM
      1 C1          1.5977    1.4697    0.6852 C.3       1 <0>        -0.1549
      2 C2          1.3895   -0.0428    0.5861 C.3       1 <0>        -0.1237
      3 C3          1.9314   -0.5456   -0.7535 C.3       1 <0>        -0.1184
      4 C4          1.7232   -2.0581   -0.8526 C.3       1 <0>        -0.1196
      5 C5          2.2652   -2.5608   -2.1921 C.3       1 <0>         0.0669
      6 O1          2.0707   -3.9735   -2.2847 O.3       1 <0>        -0.3481
      7 C6          2.4969   -4.5780   -3.4134 C.2       1 <0>         0.5349
      8 O2          3.0196   -3.9218   -4.2948 O.2       1 <0>        -0.5110
      9 C7          2.3360   -5.9744   -3.5719 C.2       1 <0>        -0.2914
     10 C8          2.6390   -6.5841   -4.7382 C.2       1 <0>         0.2680
     11 N1          2.4836   -7.9324   -4.8897 N.am      1 <0>        -0.6457
     12 C9          2.0305   -8.7409   -3.9234 C.2       1 <0>         0.7055
     13 O3          1.9260   -9.9300   -4.1527 O.2       1 <0>        -0.5523
     14 N2          1.6869   -8.2794   -2.7047 N.am      1 <0>        -0.7123
     15 C10         1.8238   -6.8378   -2.4369 C.3       1 <0>         0.2349
     16 H1          2.4972   -6.7124   -1.5891 H         1 <0>         0.1011
     17 C11         0.4702   -6.3152   -2.0299 C.ar      1 <0>        -0.0568
     18 C12        -0.6507   -6.6529   -2.7651 C.ar      1 <0>        -0.0980
     19 C13        -1.8924   -6.1735   -2.3918 C.ar      1 <0>        -0.0573
     20 C14        -2.0132   -5.3567   -1.2831 C.ar      1 <0>        -0.0430
     21 C15        -0.8924   -5.0198   -0.5474 C.ar      1 <0>        -0.0561
     22 C16         0.3487   -5.5026   -0.9182 C.ar      1 <0>        -0.0759
     23 N3         -3.3426   -4.8426   -0.8839 N.pl3     1 <0>         0.0318
     24 O4         -4.3227   -5.1370   -1.5275 O.2       1 <0>        -0.1584
     25 O5         -3.4483   -4.1283    0.0858 O.3       1 <0>        -0.1553
     26 C17         3.1565   -5.7633   -5.8912 C.3       1 <0>        -0.1432
     27 H2          2.6619    1.6953    0.6161 H         1 <0>         0.0541
     28 H3          1.0680    1.9635   -0.1295 H         1 <0>         0.0543
     29 H4          1.2116    1.8279    1.6395 H         1 <0>         0.0560
     30 H5          1.9192   -0.5366    1.4007 H         1 <0>         0.0633
     31 H6          0.3253   -0.2684    0.6552 H         1 <0>         0.0639
     32 H7          1.4017   -0.0517   -1.5681 H         1 <0>         0.0654
     33 H8          2.9956   -0.3200   -0.8226 H         1 <0>         0.0663
     34 H9          2.2529   -2.5519   -0.0379 H         1 <0>         0.0750
     35 H10         0.6590   -2.2836   -0.7835 H         1 <0>         0.0724
     36 H11         1.7354   -2.0670   -3.0068 H         1 <0>         0.0671
     37 H12         3.3293   -2.3353   -2.2612 H         1 <0>         0.0697
     38 H13         2.7142   -8.3264   -5.7456 H         1 <0>         0.4330
     39 H14         1.3604   -8.8829   -2.0191 H         1 <0>         0.4360
     40 H15        -0.5563   -7.2910   -3.6313 H         1 <0>         0.1372
     41 H16        -2.7680   -6.4368   -2.9665 H         1 <0>         0.1530
     42 H17        -0.9867   -4.3813    0.3186 H         1 <0>         0.1547
     43 H18         1.2238   -5.2424   -0.3413 H         1 <0>         0.1519
     44 H19         4.2324   -5.6251   -5.7848 H         1 <0>         0.1045
     45 H20         2.9474   -6.2801   -6.8278 H         1 <0>         0.0757
     46 H21         2.6639   -4.7910   -5.8950 H         1 <0>         0.1247
@<TRIPOS>BOND
     1    1    2 1
     2    1   27 1
     3    1   28 1
     4    1   29 1
     5    2    3 1
     6    2   30 1
     7    2   31 1
     8    3    4 1
     9    3   32 1
    10    3   33 1
    11    4    5 1
    12    4   34 1
    13    4   35 1
    14    5    6 1
    15    5   36 1
    16    5   37 1
    17    6    7 1
    18    7    8 2
    19    7    9 1
    20    9   15 1
    21    9   10 2
    22   10   11 1
    23   10   26 1
    24   11   12 am
    25   11   38 1
    26   12   13 2
    27   12   14 am
    28   14   15 1
    29   14   39 1
    30   15   16 1
    31   15   17 1
    32   17   22 ar
    33   17   18 ar
    34   18   19 ar
    35   18   40 1
    36   19   20 ar
    37   19   41 1
    38   20   21 ar
    39   20   23 1
    40   21   22 ar
    41   21   42 1
    42   22   43 1
    43   23   24 2
    44   23   25 1
    45   26   44 1
    46   26   45 1
    47   26   46 1
@<TRIPOS>MOLECULE
ZINC05003034
   46    47     0     0     0
SMALL
USER_CHARGES

@<TRIPOS>ATOM
      1 C1          1.5156    1.4812    0.6506 C.3       1 <0>        -0.1551
      2 C2          1.3121   -0.0321    0.5529 C.3       1 <0>        -0.1235
      3 C3          1.8743   -0.5375   -0.7772 C.3       1 <0>        -0.1186
      4 C4          1.6707   -2.0508   -0.8749 C.3       1 <0>        -0.1197
      5 C5          2.2329   -2.5562   -2.2050 C.3       1 <0>         0.0674
      6 O1          2.0428   -3.9696   -2.2962 O.3       1 <0>        -0.3494
      7 C6          2.4865   -4.5764   -3.4169 C.2       1 <0>         0.5355
      8 O2          3.0204   -3.9217   -4.2926 O.2       1 <0>        -0.5109
      9 C7          2.3309   -5.9736   -3.5736 C.2       1 <0>        -0.2912
     10 C8          2.6390   -6.5841   -4.7382 C.2       1 <0>         0.2678
     11 N1          2.4887   -7.9331   -4.8880 N.am      1 <0>        -0.6456
     12 C9          2.0360   -8.7417   -3.9215 C.2       1 <0>         0.7054
     13 O3          1.9363   -9.9316   -4.1492 O.2       1 <0>        -0.5523
     14 N2          1.6878   -8.2795   -2.7044 N.am      1 <0>        -0.7121
     15 C10         1.8189   -6.8370   -2.4386 C.3       1 <0>         0.2346
     16 H1          0.8378   -6.4620   -2.1473 H         1 <0>         0.1026
     17 C11         2.7465   -6.6586   -1.2643 C.ar      1 <0>        -0.0589
     18 C12         3.9499   -7.3375   -1.2246 C.ar      1 <0>        -0.0977
     19 C13         4.8007   -7.1738   -0.1475 C.ar      1 <0>        -0.0565
     20 C14         4.4482   -6.3308    0.8898 C.ar      1 <0>        -0.0432
     21 C15         3.2452   -5.6511    0.8497 C.ar      1 <0>        -0.0558
     22 C16         2.3963   -5.8115   -0.2295 C.ar      1 <0>        -0.0823
     23 N3          5.3588   -6.1563    2.0436 N.pl3     1 <0>         0.0316
     24 O4          6.4108   -6.7510    2.0789 O.2       1 <0>        -0.1576
     25 O5          5.0506   -5.4190    2.9508 O.3       1 <0>        -0.1547
     26 C17         3.1565   -5.7633   -5.8912 C.3       1 <0>        -0.1429
     27 H2          2.5802    1.7088    0.5961 H         1 <0>         0.0545
     28 H3          0.9966    1.9715   -0.1730 H         1 <0>         0.0542
     29 H4          1.1151    1.8412    1.5982 H         1 <0>         0.0558
     30 H5          1.8311   -0.5224    1.3765 H         1 <0>         0.0638
     31 H6          0.2475   -0.2598    0.6074 H         1 <0>         0.0631
     32 H7          1.3552   -0.0472   -1.6008 H         1 <0>         0.0662
     33 H8          2.9388   -0.3099   -0.8317 H         1 <0>         0.0657
     34 H9          2.1898   -2.5411   -0.0513 H         1 <0>         0.0732
     35 H10         0.6062   -2.2785   -0.8204 H         1 <0>         0.0753
     36 H11         1.7139   -2.0660   -3.0286 H         1 <0>         0.0694
     37 H12         3.2975   -2.3286   -2.2595 H         1 <0>         0.0672
     38 H13         2.7228   -8.3277   -5.7426 H         1 <0>         0.4330
     39 H14         1.3617   -8.8831   -2.0187 H         1 <0>         0.4360
     40 H15         4.2253   -7.9962   -2.0351 H         1 <0>         0.1378
     41 H16         5.7406   -7.7049   -0.1162 H         1 <0>         0.1537
     42 H17         2.9697   -4.9928    1.6603 H         1 <0>         0.1555
     43 H18         1.4581   -5.2777   -0.2625 H         1 <0>         0.1541
     44 H19         4.2324   -5.6251   -5.7848 H         1 <0>         0.1037
     45 H20         2.9474   -6.2801   -6.8278 H         1 <0>         0.0760
     46 H21         2.6639   -4.7910   -5.8950 H         1 <0>         0.1250
@<TRIPOS>BOND
     1    1    2 1
     2    1   27 1
     3    1   28 1
     4    1   29 1
     5    2    3 1
     6    2   30 1
     7    2   31 1
     8    3    4 1
     9    3   32 1
    10    3   33 1
    11    4    5 1
    12    4   34 1
    13    4   35 1
    14    5    6 1
    15    5   36 1
    16    5   37 1
    17    6    7 1
    18    7    8 2
    19    7    9 1
    20    9   15 1
    21    9   10 2
    22   10   11 1
    23   10   26 1
    24   11   12 am
    25   11   38 1
    26   12   13 2
    27   12   14 am
    28   14   15 1
    29   14   39 1
    30   15   16 1
    31   15   17 1
    32   17   22 ar
    33   17   18 ar
    34   18   19 ar
    35   18   40 1
    36   19   20 ar
    37   19   41 1
    38   20   21 ar
    39   20   23 1
    40   21   22 ar
    41   21   42 1
    42   22   43 1
    43   23   24 2
    44   23   25 1
    45   26   44 1
    46   26   45 1
    47   26   46 1
@<TRIPOS>MOLECULE
ZINC00832319
   50    52     0     0     0
SMALL
USER_CHARGES
cycloheptyl 4-methyl-6-(4-nitrophenyl)-2-oxo-3,6-dihydro-1H-pyrimidine-5-carboxylate
@<TRIPOS>ATOM
      1 C1         -1.7470    7.4844    3.0698 C.3       1 <0>        -0.1258
      2 C2         -1.4306    6.9942    1.6804 C.2       1 <0>         0.2653
      3 C3         -0.3150    6.2622    1.4723 C.2       1 <0>        -0.2905
      4 C4         -0.0346    5.7900    0.0600 C.3       1 <0>         0.2347
      5 H1          0.9400    6.1776   -0.2366 H         1 <0>         0.1008
      6 N1         -1.0086    6.1710   -0.9766 N.am      1 <0>        -0.7124
      7 C5         -2.0774    6.9072   -0.6130 C.2       1 <0>         0.7054
      8 O1         -2.8874    7.2265   -1.4613 O.2       1 <0>        -0.5525
      9 N2         -2.2763    7.2979    0.6521 N.am      1 <0>        -0.6454
     10 C6          0.0555    4.2858    0.0824 C.ar      1 <0>        -0.0556
     11 C7          1.2919    3.6676    0.0938 C.ar      1 <0>        -0.0756
     12 C8          1.3746    2.2879    0.1143 C.ar      1 <0>        -0.0556
     13 C9          0.2209    1.5264    0.1234 C.ar      1 <0>        -0.0381
     14 C10        -1.0154    2.1445    0.1067 C.ar      1 <0>        -0.0572
     15 C11        -1.0981    3.5243    0.0920 C.ar      1 <0>        -0.0982
     16 N3          0.3094    0.0490    0.1449 N.pl3     1 <0>         0.0261
     17 O2          1.3988   -0.4957    0.1546 O.2       1 <0>        -0.1558
     18 O3         -0.7071   -0.6220    0.1529 O.3       1 <0>        -0.1596
     19 C12         0.5616    5.9465    2.5366 C.2       1 <0>         0.5337
     20 O4          0.3704    6.4170    3.6423 O.2       1 <0>        -0.5105
     21 O5          1.6100    5.1234    2.3257 O.3       1 <0>        -0.3468
     22 C13         2.4541    4.8479    3.4453 C.3       1 <0>         0.0980
     23 C14         3.5607    5.9203    3.5125 C.3       1 <0>        -0.1287
     24 C15         4.1118    5.9504    4.9131 C.3       1 <0>        -0.1176
     25 C16         5.3615    5.0634    5.0719 C.3       1 <0>        -0.1195
     26 C17         5.2313    3.7119    4.3438 C.3       1 <0>        -0.1224
     27 C18         3.8687    3.0961    4.5124 C.3       1 <0>        -0.1106
     28 C19         2.9946    3.5035    3.3087 C.3       1 <0>        -0.1228
     29 H2         -0.9608    8.1612    3.4042 H         1 <0>         0.1107
     30 H3         -2.7009    8.0120    3.0606 H         1 <0>         0.0729
     31 H4         -1.8084    6.6347    3.7497 H         1 <0>         0.1070
     32 H5         -0.8838    5.8989   -1.8993 H         1 <0>         0.4359
     33 H6         -3.0653    7.8267    0.8492 H         1 <0>         0.4328
     34 H7          2.1932    4.2625    0.0863 H         1 <0>         0.1522
     35 H8          2.3405    1.8049    0.1228 H         1 <0>         0.1548
     36 H9         -1.9167    1.5495    0.1093 H         1 <0>         0.1530
     37 H10        -2.0641    4.0073    0.0834 H         1 <0>         0.1372
     38 H11         1.8583    4.8979    4.3568 H         1 <0>         0.0811
     39 H12         4.3556    5.6707    2.8097 H         1 <0>         0.0753
     40 H13         3.1413    6.8953    3.2639 H         1 <0>         0.0680
     41 H14         3.3429    5.6031    5.6032 H         1 <0>         0.0633
     42 H15         4.3736    6.9774    5.1679 H         1 <0>         0.0644
     43 H16         5.5275    4.8766    6.1329 H         1 <0>         0.0611
     44 H17         6.2229    5.5973    4.6706 H         1 <0>         0.0606
     45 H18         5.9800    3.0251    4.7386 H         1 <0>         0.0626
     46 H19         5.4205    3.8641    3.2812 H         1 <0>         0.0631
     47 H20         3.4144    3.4590    5.4343 H         1 <0>         0.0687
     48 H21         3.9594    2.0105    4.5482 H         1 <0>         0.0726
     49 H22         2.1683    2.7985    3.2178 H         1 <0>         0.0660
     50 H23         3.5994    3.4566    2.4031 H         1 <0>         0.0742
@<TRIPOS>BOND
     1    1    2 1
     2    1   29 1
     3    1   30 1
     4    1   31 1
     5    2    9 1
     6    2    3 2
     7    3    4 1
     8    3   19 1
     9    4    5 1
    10    4    6 1
    11    4   10 1
    12    6    7 am
    13    6   32 1
    14    7    8 2
    15    7    9 am
    16    9   33 1
    17   10   15 ar
    18   10   11 ar
    19   11   12 ar
    20   11   34 1
    21   12   13 ar
    22   12   35 1
    23   13   14 ar
    24   13   16 1
    25   14   15 ar
    26   14   36 1
    27   15   37 1
    28   16   17 2
    29   16   18 1
    30   19   20 2
    31   19   21 1
    32   21   22 1
    33   22   28 1
    34   22   23 1
    35   22   38 1
    36   23   24 1
    37   23   39 1
    38   23   40 1
    39   24   25 1
    40   24   41 1
    41   24   42 1
    42   25   26 1
    43   25   43 1
    44   25   44 1
    45   26   27 1
    46   26   45 1
    47   26   46 1
    48   27   28 1
    49   27   47 1
    50   27   48 1
    51   28   49 1
    52   28   50 1
@<TRIPOS>MOLECULE
ZINC00832320
   50    52     0     0     0
SMALL
USER_CHARGES
cycloheptyl 4-methyl-6-(4-nitrophenyl)-2-oxo-3,6-dihydro-1H-pyrimidine-5-carboxylate
@<TRIPOS>ATOM
      1 C1         -2.0950    4.4614    3.0259 C.3       1 <0>        -0.1259
      2 C2         -1.7974    3.9238    1.6499 C.2       1 <0>         0.2651
      3 C3         -1.6112    2.5969    1.4810 C.2       1 <0>        -0.2904
      4 C4         -1.3136    2.0990    0.0812 C.3       1 <0>         0.2346
      5 H1         -2.0814    1.3734   -0.1876 H         1 <0>         0.1022
      6 N1         -1.2516    3.1102   -0.9875 N.am      1 <0>        -0.7124
      7 C5         -1.4603    4.4012   -0.6619 C.2       1 <0>         0.7054
      8 O1         -1.4108    5.2437   -1.5368 O.2       1 <0>        -0.5525
      9 N2         -1.7199    4.7863    0.5940 N.am      1 <0>        -0.6454
     10 C6          0.0093    1.3780    0.1159 C.ar      1 <0>        -0.0573
     11 C7          1.1894    2.0974    0.0885 C.ar      1 <0>        -0.0979
     12 C8          2.4029    1.4358    0.1140 C.ar      1 <0>        -0.0566
     13 C9          2.4362    0.0549    0.1672 C.ar      1 <0>        -0.0380
     14 C10         1.2561   -0.6644    0.1951 C.ar      1 <0>        -0.0551
     15 C11         0.0426   -0.0029    0.1695 C.ar      1 <0>        -0.0803
     16 N3          3.7356   -0.6535    0.1946 N.pl3     1 <0>         0.0261
     17 O2          3.7650   -1.8702    0.2418 O.2       1 <0>        -0.1557
     18 O3          4.7754   -0.0197    0.1699 O.3       1 <0>        -0.1590
     19 C12        -1.6916    1.7023    2.5738 C.2       1 <0>         0.5342
     20 O4         -1.8250    2.1328    3.7040 O.2       1 <0>        -0.5102
     21 O5         -1.6204    0.3713    2.3628 O.3       1 <0>        -0.3482
     22 C13        -1.7086   -0.4733    3.5121 C.3       1 <0>         0.0995
     23 C14        -0.2974   -0.6558    4.1073 C.3       1 <0>        -0.1286
     24 C15        -0.4358   -1.0864    5.5424 C.3       1 <0>        -0.1171
     25 C16        -0.3911   -2.6178    5.7054 C.3       1 <0>        -0.1196
     26 C17        -1.1942   -3.3580    4.6187 C.3       1 <0>        -0.1231
     27 C18        -2.5091   -2.6905    4.3196 C.3       1 <0>        -0.1100
     28 C19        -2.3139   -1.7381    3.1221 C.3       1 <0>        -0.1240
     29 H2         -1.2361    4.2930    3.6754 H         1 <0>         0.1089
     30 H3         -2.2983    5.5304    2.9622 H         1 <0>         0.0730
     31 H4         -2.9660    3.9497    3.4353 H         1 <0>         0.1088
     32 H5         -1.0647    2.8533   -1.9040 H         1 <0>         0.4359
     33 H6         -1.8611    5.7309    0.7632 H         1 <0>         0.4328
     34 H7          1.1633    3.1762    0.0463 H         1 <0>         0.1377
     35 H8          3.3249    1.9978    0.0929 H         1 <0>         0.1535
     36 H9          1.2822   -1.7433    0.2366 H         1 <0>         0.1550
     37 H10        -0.8794   -0.5649    0.1910 H         1 <0>         0.1536
     38 H11        -2.3442    0.0079    4.2554 H         1 <0>         0.0813
     39 H12         0.2407   -1.4198    3.5461 H         1 <0>         0.0733
     40 H13         0.2453    0.2882    4.0590 H         1 <0>         0.0651
     41 H14        -1.3852   -0.7180    5.9311 H         1 <0>         0.0638
     42 H15         0.3752   -0.6462    6.1225 H         1 <0>         0.0636
     43 H16        -0.7977   -2.8793    6.6824 H         1 <0>         0.0615
     44 H17         0.6477   -2.9445    5.6587 H         1 <0>         0.0606
     45 H18        -1.3844   -4.3776    4.9538 H         1 <0>         0.0627
     46 H19        -0.6010   -3.3940    3.7050 H         1 <0>         0.0630
     47 H20        -2.8376   -2.1220    5.1897 H         1 <0>         0.0690
     48 H21        -3.2544   -3.4454    4.0693 H         1 <0>         0.0727
     49 H22        -3.2843   -1.5396    2.6671 H         1 <0>         0.0710
     50 H23        -1.6728   -2.2245    2.3869 H         1 <0>         0.0738
@<TRIPOS>BOND
     1    1    2 1
     2    1   29 1
     3    1   30 1
     4    1   31 1
     5    2    9 1
     6    2    3 2
     7    3    4 1
     8    3   19 1
     9    4    5 1
    10    4    6 1
    11    4   10 1
    12    6    7 am
    13    6   32 1
    14    7    8 2
    15    7    9 am
    16    9   33 1
    17   10   15 ar
    18   10   11 ar
    19   11   12 ar
    20   11   34 1
    21   12   13 ar
    22   12   35 1
    23   13   14 ar
    24   13   16 1
    25   14   15 ar
    26   14   36 1
    27   15   37 1
    28   16   17 2
    29   16   18 1
    30   19   20 2
    31   19   21 1
    32   21   22 1
    33   22   28 1
    34   22   23 1
    35   22   38 1
    36   23   24 1
    37   23   39 1
    38   23   40 1
    39   24   25 1
    40   24   41 1
    41   24   42 1
    42   25   26 1
    43   25   43 1
    44   25   44 1
    45   26   27 1
    46   26   45 1
    47   26   46 1
    48   27   28 1
    49   27   47 1
    50   27   48 1
    51   28   49 1
    52   28   50 1
@<TRIPOS>MOLECULE
ZINC00847256
   47    49     0     0     0
SMALL
USER_CHARGES
cyclohexyl 4-methyl-6-(4-nitrophenyl)-2-oxo-3,6-dihydro-1H-pyrimidine-5-carboxylate
@<TRIPOS>ATOM
      1 C1         -1.7274    7.3904    3.1055 C.3       1 <0>        -0.1430
      2 C2         -1.4213    6.9504    1.6970 C.2       1 <0>         0.2673
      3 C3         -0.2237    6.3904    1.4216 C.2       1 <0>        -0.2910
      4 C4          0.0427    5.9624   -0.0074 C.3       1 <0>         0.2347
      5 H1          0.9313    6.4889   -0.3557 H         1 <0>         0.1007
      6 N1         -1.0339    6.1941   -0.9850 N.am      1 <0>        -0.7123
      7 C5         -2.1770    6.7654   -0.5569 C.2       1 <0>         0.7054
      8 O1         -3.0719    6.9605   -1.3561 O.2       1 <0>        -0.5525
      9 N2         -2.3592    7.1249    0.7199 N.am      1 <0>        -0.6458
     10 C6          0.3544    4.4880   -0.0003 C.ar      1 <0>        -0.0559
     11 C7          1.6670    4.0587   -0.0626 C.ar      1 <0>        -0.0751
     12 C8          1.9529    2.7063   -0.0561 C.ar      1 <0>        -0.0555
     13 C9          0.9263    1.7831    0.0127 C.ar      1 <0>        -0.0381
     14 C10        -0.3865    2.2123    0.0697 C.ar      1 <0>        -0.0572
     15 C11        -0.6722    3.5648    0.0690 C.ar      1 <0>        -0.0980
     16 N3          1.2324    0.3349    0.0193 N.pl3     1 <0>         0.0262
     17 O2          2.3888   -0.0433   -0.0360 O.2       1 <0>        -0.1558
     18 O3          0.3278   -0.4785    0.0799 O.3       1 <0>        -0.1597
     19 C12         0.7491    6.2098    2.4325 C.2       1 <0>         0.5344
     20 O4          0.5604    6.6624    3.5462 O.2       1 <0>        -0.5104
     21 O5          1.8863    5.5357    2.1619 O.3       1 <0>        -0.3428
     22 C13         2.8246    5.3912    3.2300 C.3       1 <0>         0.0910
     23 C14         3.7968    6.5726    3.2181 C.3       1 <0>        -0.1349
     24 C15         4.8014    6.4179    4.3616 C.3       1 <0>        -0.1169
     25 C16         5.5813    5.1138    4.1824 C.3       1 <0>        -0.1239
     26 C17         4.6091    3.9324    4.1944 C.3       1 <0>        -0.1175
     27 C18         3.6045    4.0871    3.0508 C.3       1 <0>        -0.1139
     28 H2         -1.3210    8.3882    3.2709 H         1 <0>         0.1043
     29 H3         -2.8071    7.4087    3.2538 H         1 <0>         0.0754
     30 H4         -1.2756    6.6926    3.8104 H         1 <0>         0.1249
     31 H5         -0.9230    5.9415   -1.9150 H         1 <0>         0.4359
     32 H6         -3.2050    7.5320    0.9647 H         1 <0>         0.4329
     33 H7          2.4690    4.7799   -0.1168 H         1 <0>         0.1520
     34 H8          2.9783    2.3709   -0.1052 H         1 <0>         0.1548
     35 H9         -1.1888    1.4910    0.1191 H         1 <0>         0.1531
     36 H10        -1.6976    3.9002    0.1181 H         1 <0>         0.1372
     37 H11         2.2921    5.3684    4.1808 H         1 <0>         0.0843
     38 H12         4.3293    6.5954    2.2673 H         1 <0>         0.0719
     39 H13         3.2412    7.5016    3.3457 H         1 <0>         0.0679
     40 H14         4.2690    6.3951    5.3124 H         1 <0>         0.0651
     41 H15         5.4940    7.2595    4.3531 H         1 <0>         0.0689
     42 H16         6.2970    5.0036    4.9971 H         1 <0>         0.0667
     43 H17         6.1137    5.1366    3.2316 H         1 <0>         0.0654
     44 H18         4.0766    3.9097    5.1452 H         1 <0>         0.0651
     45 H19         5.1647    3.0034    4.0667 H         1 <0>         0.0729
     46 H20         2.9119    3.2455    3.0593 H         1 <0>         0.0672
     47 H21         4.1369    4.1099    2.1000 H         1 <0>         0.0745
@<TRIPOS>BOND
     1    1    2 1
     2    1   28 1
     3    1   29 1
     4    1   30 1
     5    2    9 1
     6    2    3 2
     7    3    4 1
     8    3   19 1
     9    4    5 1
    10    4    6 1
    11    4   10 1
    12    6    7 am
    13    6   31 1
    14    7    8 2
    15    7    9 am
    16    9   32 1
    17   10   15 ar
    18   10   11 ar
    19   11   12 ar
    20   11   33 1
    21   12   13 ar
    22   12   34 1
    23   13   14 ar
    24   13   16 1
    25   14   15 ar
    26   14   35 1
    27   15   36 1
    28   16   17 2
    29   16   18 1
    30   19   20 2
    31   19   21 1
    32   21   22 1
    33   22   27 1
    34   22   23 1
    35   22   37 1
    36   23   24 1
    37   23   38 1
    38   23   39 1
    39   24   25 1
    40   24   40 1
    41   24   41 1
    42   25   26 1
    43   25   42 1
    44   25   43 1
    45   26   27 1
    46   26   44 1
    47   26   45 1
    48   27   46 1
    49   27   47 1
@<TRIPOS>MOLECULE
ZINC00847257
   47    49     0     0     0
SMALL
USER_CHARGES
cyclohexyl 4-methyl-6-(4-nitrophenyl)-2-oxo-3,6-dihydro-1H-pyrimidine-5-carboxylate
@<TRIPOS>ATOM
      1 C1         -2.0948    4.4629    3.0253 C.3       1 <0>        -0.1261
      2 C2         -1.7973    3.9245    1.6496 C.2       1 <0>         0.2656
      3 C3         -1.6112    2.5975    1.4815 C.2       1 <0>        -0.2905
      4 C4         -1.3138    2.0988    0.0819 C.3       1 <0>         0.2346
      5 H1         -2.0817    1.3731   -0.1864 H         1 <0>         0.1025
      6 N1         -1.2517    3.1094   -0.9873 N.am      1 <0>        -0.7123
      7 C5         -1.4602    4.4006   -0.6624 C.2       1 <0>         0.7054
      8 O1         -1.4107    5.2425   -1.5378 O.2       1 <0>        -0.5524
      9 N2         -1.7197    4.7864    0.5932 N.am      1 <0>        -0.6453
     10 C6          0.0090    1.3777    0.1170 C.ar      1 <0>        -0.0575
     11 C7          1.1892    2.0969    0.0891 C.ar      1 <0>        -0.0978
     12 C8          2.4026    1.4352    0.1150 C.ar      1 <0>        -0.0566
     13 C9          2.4358    0.0543    0.1689 C.ar      1 <0>        -0.0381
     14 C10         1.2556   -0.6649    0.1973 C.ar      1 <0>        -0.0555
     15 C11         0.0422   -0.0032    0.1714 C.ar      1 <0>        -0.0806
     16 N3          3.7351   -0.6543    0.1966 N.pl3     1 <0>         0.0260
     17 O2          3.7644   -1.8710    0.2445 O.2       1 <0>        -0.1557
     18 O3          4.7750   -0.0206    0.1716 O.3       1 <0>        -0.1588
     19 C12        -1.6917    1.7035    2.5748 C.2       1 <0>         0.5344
     20 O4         -1.8250    2.1347    3.7048 O.2       1 <0>        -0.5114
     21 O5         -1.6206    0.3724    2.3646 O.3       1 <0>        -0.3447
     22 C13        -1.7088   -0.4716    3.5143 C.3       1 <0>         0.0921
     23 C14        -0.3065   -0.7197    4.0736 C.3       1 <0>        -0.1344
     24 C15        -0.4009   -1.6234    5.3046 C.3       1 <0>        -0.1168
     25 C16        -1.0361   -2.9582    4.9099 C.3       1 <0>        -0.1244
     26 C17        -2.4384   -2.7100    4.3506 C.3       1 <0>        -0.1169
     27 C18        -2.3440   -1.8063    3.1196 C.3       1 <0>        -0.1150
     28 H2         -1.2358    4.2947    3.6749 H         1 <0>         0.1089
     29 H3         -2.2979    5.5319    2.9610 H         1 <0>         0.0733
     30 H4         -2.9658    3.9515    3.4351 H         1 <0>         0.1088
     31 H5         -1.0649    2.8519   -1.9037 H         1 <0>         0.4359
     32 H6         -1.8609    5.7312    0.7619 H         1 <0>         0.4329
     33 H7          1.1632    3.1757    0.0463 H         1 <0>         0.1378
     34 H8          3.3247    1.9971    0.0935 H         1 <0>         0.1536
     35 H9          1.2816   -1.7438    0.2394 H         1 <0>         0.1552
     36 H10        -0.8798   -0.5651    0.1933 H         1 <0>         0.1538
     37 H11        -2.3226    0.0123    4.2740 H         1 <0>         0.0852
     38 H12         0.3073   -1.2036    3.3138 H         1 <0>         0.0692
     39 H13         0.1461    0.2312    4.3548 H         1 <0>         0.0653
     40 H14        -1.0147   -1.1395    6.0643 H         1 <0>         0.0656
     41 H15         0.5982   -1.8002    5.7030 H         1 <0>         0.0683
     42 H16        -1.1034   -3.6020    5.7869 H         1 <0>         0.0670
     43 H17        -0.4223   -3.4421    4.1501 H         1 <0>         0.0655
     44 H18        -3.0522   -2.2261    5.1103 H         1 <0>         0.0655
     45 H19        -2.8910   -3.6609    4.0694 H         1 <0>         0.0726
     46 H20        -3.3430   -1.6296    2.7211 H         1 <0>         0.0719
     47 H21        -1.7302   -2.2903    2.3599 H         1 <0>         0.0740
@<TRIPOS>BOND
     1    1    2 1
     2    1   28 1
     3    1   29 1
     4    1   30 1
     5    2    9 1
     6    2    3 2
     7    3    4 1
     8    3   19 1
     9    4    5 1
    10    4    6 1
    11    4   10 1
    12    6    7 am
    13    6   31 1
    14    7    8 2
    15    7    9 am
    16    9   32 1
    17   10   15 ar
    18   10   11 ar
    19   11   12 ar
    20   11   33 1
    21   12   13 ar
    22   12   34 1
    23   13   14 ar
    24   13   16 1
    25   14   15 ar
    26   14   35 1
    27   15   36 1
    28   16   17 2
    29   16   18 1
    30   19   20 2
    31   19   21 1
    32   21   22 1
    33   22   27 1
    34   22   23 1
    35   22   37 1
    36   23   24 1
    37   23   38 1
    38   23   39 1
    39   24   25 1
    40   24   40 1
    41   24   41 1
    42   25   26 1
    43   25   42 1
    44   25   43 1
    45   26   27 1
    46   26   44 1
    47   26   45 1
    48   27   46 1
    49   27   47 1
@<TRIPOS>MOLECULE
ZINC00178335
   42    44     0     0     0
SMALL
USER_CHARGES
cyclopentyl 4-(4-fluorophenyl)-6-methyl-2-oxo-3,4-dihydro-1H-pyrimidine-5-carboxylate
@<TRIPOS>ATOM
      1 C1          1.0582   -2.2501   -0.0216 C.3       1 <0>        -0.1239
      2 C2          1.1486   -0.7458   -0.0134 C.2       1 <0>         0.2577
      3 C3          2.3620   -0.1532   -0.0219 C.2       1 <0>        -0.2837
      4 C4          2.4073    1.3613   -0.0137 C.3       1 <0>         0.2396
      5 H1          2.9728    1.6759    0.8635 H         1 <0>         0.0941
      6 N1          1.1151    2.0674    0.0025 N.am      1 <0>        -0.7108
      7 C5         -0.0161    1.3348    0.0094 C.2       1 <0>         0.7046
      8 O1         -1.0879    1.9082    0.0175 O.2       1 <0>        -0.5588
      9 N2          0.0021   -0.0041    0.0020 N.am      1 <0>        -0.6463
     10 C6          3.1662    1.8100   -1.2359 C.ar      1 <0>        -0.1203
     11 C7          2.5359    1.8453   -2.4659 C.ar      1 <0>        -0.0681
     12 C8          3.2292    2.2620   -3.5864 C.ar      1 <0>        -0.1578
     13 C9          4.5588    2.6330   -3.4790 C.ar      1 <0>         0.1062
     14 C10         5.1906    2.5919   -2.2476 C.ar      1 <0>        -0.1570
     15 C11         4.4935    2.1807   -1.1273 C.ar      1 <0>        -0.0493
     16 F1          5.2394    3.0344   -4.5748 F         1 <0>        -0.1388
     17 C12         3.5504   -0.9203   -0.0374 C.2       1 <0>         0.5350
     18 O2          3.4901   -2.1356   -0.0433 O.2       1 <0>        -0.5163
     19 O3          4.7510   -0.3044   -0.0456 O.3       1 <0>        -0.3375
     20 C13         5.9094   -1.1411   -0.0612 C.3       1 <0>         0.0850
     21 C14         6.3935   -1.4002    1.3804 C.3       1 <0>        -0.1413
     22 C15         7.9383   -1.4033    1.2675 C.3       1 <0>        -0.1239
     23 C16         8.2076   -0.2833    0.2320 C.3       1 <0>        -0.1233
     24 C17         7.0628   -0.4310   -0.7914 C.3       1 <0>        -0.1249
     25 H2          0.0106   -2.5512   -0.0134 H         1 <0>         0.0708
     26 H3          1.5407   -2.6382   -0.9186 H         1 <0>         0.1069
     27 H4          1.5577   -2.6489    0.8613 H         1 <0>         0.1076
     28 H5          1.0789    3.0367    0.0078 H         1 <0>         0.4344
     29 H6         -0.8468   -0.4734    0.0076 H         1 <0>         0.4310
     30 H7          1.5002    1.5509   -2.5504 H         1 <0>         0.1227
     31 H8          2.7355    2.2933   -4.5465 H         1 <0>         0.1346
     32 H9          6.2276    2.8814   -2.1625 H         1 <0>         0.1367
     33 H10         4.9861    2.1486   -0.1668 H         1 <0>         0.1384
     34 H11         5.6806   -2.0858   -0.5545 H         1 <0>         0.0867
     35 H12         6.0612   -0.6017    2.0438 H         1 <0>         0.0771
     36 H13         6.0350   -2.3664    1.7354 H         1 <0>         0.0728
     37 H14         8.2967   -2.3644    0.8989 H         1 <0>         0.0702
     38 H15         8.3962   -1.1610    2.2265 H         1 <0>         0.0720
     39 H16         9.1730   -0.4344   -0.2510 H         1 <0>         0.0701
     40 H17         8.1696    0.6964    0.7083 H         1 <0>         0.0699
     41 H18         7.3943   -1.0314   -1.6385 H         1 <0>         0.0756
     42 H19         6.7387    0.5515   -1.1346 H         1 <0>         0.0820
@<TRIPOS>BOND
     1    1    2 1
     2    1   25 1
     3    1   26 1
     4    1   27 1
     5    2    9 1
     6    2    3 2
     7    3    4 1
     8    3   17 1
     9    4    5 1
    10    4    6 1
    11    4   10 1
    12    6    7 am
    13    6   28 1
    14    7    8 2
    15    7    9 am
    16    9   29 1
    17   10   15 ar
    18   10   11 ar
    19   11   12 ar
    20   11   30 1
    21   12   13 ar
    22   12   31 1
    23   13   14 ar
    24   13   16 1
    25   14   15 ar
    26   14   32 1
    27   15   33 1
    28   17   18 2
    29   17   19 1
    30   19   20 1
    31   20   24 1
    32   20   21 1
    33   20   34 1
    34   21   22 1
    35   21   35 1
    36   21   36 1
    37   22   23 1
    38   22   37 1
    39   22   38 1
    40   23   24 1
    41   23   39 1
    42   23   40 1
    43   24   41 1
    44   24   42 1
@<TRIPOS>MOLECULE
ZINC00178337
   42    44     0     0     0
SMALL
USER_CHARGES
cyclopentyl 4-(4-fluorophenyl)-6-methyl-2-oxo-3,4-dihydro-1H-pyrimidine-5-carboxylate
@<TRIPOS>ATOM
      1 C1          4.8851    1.6363   -3.0240 C.3       1 <0>        -0.1242
      2 C2          4.2734    1.6028   -1.6471 C.2       1 <0>         0.2571
      3 C3          3.0453    1.0670   -1.4787 C.2       1 <0>        -0.2833
      4 C4          2.4675    1.0540   -0.0780 C.3       1 <0>         0.2396
      5 H1          2.2509    0.0190    0.1866 H         1 <0>         0.0948
      6 N1          3.2987    1.6310    0.9920 N.am      1 <0>        -0.7109
      7 C5          4.5078    2.1297    0.6666 C.2       1 <0>         0.7046
      8 O1          5.2017    2.6078    1.5427 O.2       1 <0>        -0.5589
      9 N2          4.9698    2.1153   -0.5901 N.am      1 <0>        -0.6463
     10 C6          1.1611    1.8048   -0.1074 C.ar      1 <0>        -0.1213
     11 C7         -0.0332    1.1108   -0.1621 C.ar      1 <0>        -0.0508
     12 C8         -1.2316    1.7983   -0.1944 C.ar      1 <0>        -0.1553
     13 C9         -1.2362    3.1825   -0.1604 C.ar      1 <0>         0.1055
     14 C10        -0.0393    3.8765   -0.1055 C.ar      1 <0>        -0.1575
     15 C11         1.1581    3.1869   -0.0791 C.ar      1 <0>        -0.0683
     16 F1         -2.4073    3.8555   -0.1858 F         1 <0>        -0.1388
     17 C12         2.3231    0.5354   -2.5727 C.2       1 <0>         0.5356
     18 O2          2.7581    0.6517   -3.7031 O.2       1 <0>        -0.5157
     19 O3          1.1516   -0.1007   -2.3627 O.3       1 <0>        -0.3386
     20 C13         0.4759   -0.6124   -3.5131 C.3       1 <0>         0.0854
     21 C14        -0.5202    0.4357   -4.0507 C.3       1 <0>        -0.1411
     22 C15        -1.7345   -0.4030   -4.5236 C.3       1 <0>        -0.1238
     23 C16        -1.8235   -1.5137   -3.4478 C.3       1 <0>        -0.1229
     24 C17        -0.3521   -1.8516   -3.1302 C.3       1 <0>        -0.1223
     25 H2          4.2913    2.2832   -3.6697 H         1 <0>         0.1073
     26 H3          5.9027    2.0218   -2.9602 H         1 <0>         0.0711
     27 H4          4.9038    0.6281   -3.4378 H         1 <0>         0.1069
     28 H5          2.9834    1.6519    1.9090 H         1 <0>         0.4344
     29 H6          5.8485    2.4896   -0.7590 H         1 <0>         0.4309
     30 H7         -0.0296    0.0310   -0.1842 H         1 <0>         0.1385
     31 H8         -2.1644    1.2560   -0.2417 H         1 <0>         0.1365
     32 H9         -0.0415    4.9562   -0.0831 H         1 <0>         0.1347
     33 H10         2.0917    3.7281   -0.0367 H         1 <0>         0.1229
     34 H11         1.1993   -0.8711   -4.2863 H         1 <0>         0.0866
     35 H12        -0.8166    1.1222   -3.2577 H         1 <0>         0.0771
     36 H13        -0.0844    0.9825   -4.8869 H         1 <0>         0.0718
     37 H14        -1.5468   -0.8325   -5.5077 H         1 <0>         0.0701
     38 H15        -2.6418    0.2010   -4.5312 H         1 <0>         0.0715
     39 H16        -2.3387   -2.3885   -3.8444 H         1 <0>         0.0704
     40 H17        -2.3304   -1.1424   -2.5571 H         1 <0>         0.0697
     41 H18        -0.0312   -2.7114   -3.7183 H         1 <0>         0.0769
     42 H19        -0.2379   -2.0631   -2.0671 H         1 <0>         0.0803
@<TRIPOS>BOND
     1    1    2 1
     2    1   25 1
     3    1   26 1
     4    1   27 1
     5    2    9 1
     6    2    3 2
     7    3    4 1
     8    3   17 1
     9    4    5 1
    10    4    6 1
    11    4   10 1
    12    6    7 am
    13    6   28 1
    14    7    8 2
    15    7    9 am
    16    9   29 1
    17   10   15 ar
    18   10   11 ar
    19   11   12 ar
    20   11   30 1
    21   12   13 ar
    22   12   31 1
    23   13   14 ar
    24   13   16 1
    25   14   15 ar
    26   14   32 1
    27   15   33 1
    28   17   18 2
    29   17   19 1
    30   19   20 1
    31   20   24 1
    32   20   21 1
    33   20   34 1
    34   21   22 1
    35   21   35 1
    36   21   36 1
    37   22   23 1
    38   22   37 1
    39   22   38 1
    40   23   24 1
    41   23   39 1
    42   23   40 1
    43   24   41 1
    44   24   42 1
