@<TRIPOS>MOLECULE
ZINC04428529
   53    56     0     0     0
SMALL
USER_CHARGES

@<TRIPOS>ATOM
      1 C1          0.4282    0.7651    1.2384 C.3       1 <0>        -0.2080
      2 C2          0.0050   -0.0027    0.0127 C.2       1 <0>         0.3647
      3 O1          0.7040   -0.0010   -0.9721 O.2       1 <0>        -0.4542
      4 C3         -1.2905   -0.7727    0.0158 C.3       1 <0>        -0.1325
      5 H1         -2.0415   -0.2446    0.6034 H         1 <0>         0.0972
      6 C4         -1.7935   -0.9827   -1.4341 C.3       1 <0>        -0.1186
      7 C5         -1.9305   -2.5169   -1.6323 C.3       1 <0>        -0.1151
      8 C6         -2.1068   -3.0336   -0.2000 C.3       1 <0>        -0.0796
      9 H2         -3.1156   -2.8264    0.1569 H         1 <0>         0.0777
     10 C7         -1.0708   -2.1742    0.5759 C.3       1 <0>        -0.0487
     11 C8         -1.3489   -2.3630    2.0549 C.3       1 <0>        -0.1047
     12 C9         -1.0643   -3.8367    2.3850 C.3       1 <0>        -0.1222
     13 C10        -1.9046   -4.7802    1.5293 C.3       1 <0>        -0.0680
     14 H3         -2.9551   -4.6575    1.7928 H         1 <0>         0.0704
     15 C11        -1.7585   -4.4942    0.0214 C.3       1 <0>        -0.0776
     16 H4         -0.7305   -4.6831   -0.2877 H         1 <0>         0.0863
     17 C12        -2.7266   -5.3822   -0.7660 C.3       1 <0>        -0.1118
     18 C13        -2.3186   -6.8466   -0.5915 C.3       1 <0>        -0.0977
     19 C14        -2.2642   -7.1658    0.8913 C.2       1 <0>        -0.0206
     20 C15        -2.8820   -8.2703    1.3099 C.2       1 <0>        -0.2434
     21 H5         -3.4070   -8.8958    0.6032 H         1 <0>         0.1337
     22 C16        -2.8495   -8.6362    2.7300 C.2       1 <0>         0.3882
     23 O2         -3.6756   -9.3796    3.2168 O.2       1 <0>        -0.4580
     24 C17        -1.7290   -8.0371    3.5574 C.3       1 <0>        -0.1668
     25 H6         -1.9153   -8.2141    4.6167 H         1 <0>         0.0925
     26 H7         -0.7768   -8.4825    3.2693 H         1 <0>         0.0997
     27 C18        -1.7074   -6.5351    3.2776 C.3       1 <0>        -0.1069
     28 C19        -1.4839   -6.2270    1.8163 C.3       1 <0>        -0.0241
     29 C20         0.0121   -6.3503    1.5204 C.3       1 <0>        -0.1492
     30 C21         0.3461   -2.6481    0.2465 C.3       1 <0>        -0.1572
     31 H8          1.3837    1.2542    1.0489 H         1 <0>         0.0809
     32 H9         -0.3247    1.5173    1.4738 H         1 <0>         0.0918
     33 H10         0.5316    0.0791    2.0791 H         1 <0>         0.0918
     34 H11        -2.7617   -0.5002   -1.5678 H         1 <0>         0.0675
     35 H12        -1.0717   -0.5769   -2.1430 H         1 <0>         0.0790
     36 H13        -2.8065   -2.7509   -2.2372 H         1 <0>         0.0676
     37 H14        -1.0279   -2.9297   -2.0829 H         1 <0>         0.0698
     38 H15        -0.6944   -1.7180    2.6411 H         1 <0>         0.0661
     39 H16        -2.3917   -2.1291    2.2695 H         1 <0>         0.0682
     40 H17        -0.0085   -4.0427    2.2091 H         1 <0>         0.0749
     41 H18        -1.2894   -4.0152    3.4365 H         1 <0>         0.0667
     42 H19        -3.7398   -5.2390   -0.3905 H         1 <0>         0.0659
     43 H20        -2.6874   -5.1165   -1.8224 H         1 <0>         0.0725
     44 H21        -3.0518   -7.4905   -1.0771 H         1 <0>         0.0771
     45 H22        -1.3365   -7.0077   -1.0361 H         1 <0>         0.0840
     46 H23        -2.6504   -6.0986    3.6068 H         1 <0>         0.0701
     47 H24        -0.8915   -6.0806    3.8396 H         1 <0>         0.0811
     48 H25         0.5667   -5.6628    2.1591 H         1 <0>         0.0702
     49 H26         0.3383   -7.3717    1.7166 H         1 <0>         0.0587
     50 H27         0.1972   -6.1043    0.4748 H         1 <0>         0.0638
     51 H28         1.0689   -2.0310    0.7800 H         1 <0>         0.0510
     52 H29         0.4614   -3.6883    0.5512 H         1 <0>         0.0714
     53 H30         0.5175   -2.5628   -0.8266 H         1 <0>         0.0644
@<TRIPOS>BOND
     1    1    2 1
     2    1   31 1
     3    1   32 1
     4    1   33 1
     5    2    3 2
     6    2    4 1
     7    4    5 1
     8    4   10 1
     9    4    6 1
    10    6    7 1
    11    6   34 1
    12    6   35 1
    13    7    8 1
    14    7   36 1
    15    7   37 1
    16    8    9 1
    17    8   15 1
    18    8   10 1
    19   10   11 1
    20   10   30 1
    21   11   12 1
    22   11   38 1
    23   11   39 1
    24   12   13 1
    25   12   40 1
    26   12   41 1
    27   13   14 1
    28   13   28 1
    29   13   15 1
    30   15   16 1
    31   15   17 1
    32   17   18 1
    33   17   42 1
    34   17   43 1
    35   18   19 1
    36   18   44 1
    37   18   45 1
    38   19   28 1
    39   19   20 2
    40   20   21 1
    41   20   22 1
    42   22   23 2
    43   22   24 1
    44   24   25 1
    45   24   26 1
    46   24   27 1
    47   27   28 1
    48   27   46 1
    49   27   47 1
    50   28   29 1
    51   29   48 1
    52   29   49 1
    53   29   50 1
    54   30   51 1
    55   30   52 1
    56   30   53 1
@<TRIPOS>MOLECULE
ZINC03932545
   55    59     0     0     0
SMALL
USER_CHARGES

@<TRIPOS>ATOM
      1 C1          0.0422    1.5263    0.0479 C.3       1 <0>        -0.1566
      2 C2          0.0706   -0.0034    0.0440 C.3       1 <0>        -0.0293
      3 C3         -1.3641   -0.4672   -0.0183 C.3       1 <0>        -0.1111
      4 C4         -1.5650   -1.8224    0.6587 C.3       1 <0>        -0.1663
      5 C5         -1.0456   -1.7070    2.0793 C.2       1 <0>         0.3878
      6 O1         -1.7177   -2.0300    3.0364 O.2       1 <0>        -0.4573
      7 C6          0.3187   -1.1819    2.2295 C.2       1 <0>        -0.2404
      8 C7          0.8297   -0.4243    1.2639 C.2       1 <0>        -0.0215
      9 C8          2.2744    0.0317    1.3783 C.3       1 <0>        -0.0970
     10 C9          2.9977   -0.3815    0.0916 C.3       1 <0>        -0.1119
     11 C10         2.2616    0.1800   -1.1256 C.3       1 <0>        -0.0822
     12 H1          2.1942    1.2650   -1.0462 H         1 <0>         0.0920
     13 C11         0.8483   -0.4237   -1.2044 C.3       1 <0>        -0.0636
     14 H2          0.9270   -1.5107   -1.2244 H         1 <0>         0.0725
     15 C12         0.0985    0.0322   -2.4512 C.3       1 <0>        -0.1240
     16 C13         0.9093   -0.2236   -3.7338 C.3       1 <0>        -0.1011
     17 C14         2.2311    0.4875   -3.5649 C.3       1 <0>        -0.0270
     18 C15         2.9990   -0.1953   -2.3969 C.3       1 <0>        -0.0813
     19 H3          3.0319   -1.2765   -2.5307 H         1 <0>         0.0840
     20 C16         4.3732    0.4561   -2.6092 C.3       1 <0>        -0.0890
     21 C17         4.4715    0.4851   -4.1345 C.2       1 <0>        -0.1436
     22 C18         3.2241    0.4550   -4.6772 C.2       1 <0>        -0.0898
     23 C19         2.9030    0.4483   -6.1201 C.ar      1 <0>        -0.0800
     24 C20         3.2746    1.5224   -6.9368 C.ar      1 <0>        -0.0661
     25 C21         2.9503    1.4673   -8.2808 C.ar      1 <0>        -0.1702
     26 C22         2.2757    0.3630   -8.7698 C.ar      1 <0>         0.0957
     27 N1          1.9381   -0.6350   -7.9763 N.ar      1 <0>        -0.4826
     28 C23         2.2295   -0.6314   -6.6917 C.ar      1 <0>         0.1131
     29 C24         1.9724    1.9415   -3.1649 C.3       1 <0>        -0.1542
     30 H4          1.0625    1.9087    0.0201 H         1 <0>         0.0675
     31 H5         -0.5030    1.8818   -0.8265 H         1 <0>         0.0674
     32 H6         -0.4532    1.8782    0.9528 H         1 <0>         0.0571
     33 H7         -1.9960    0.2714    0.4749 H         1 <0>         0.0710
     34 H8         -1.6650   -0.5459   -1.0630 H         1 <0>         0.0894
     35 H9         -2.6251   -2.0757    0.6719 H         1 <0>         0.0918
     36 H10        -1.0073   -2.5901    0.1222 H         1 <0>         0.0986
     37 H11         0.9025   -1.4188    3.1067 H         1 <0>         0.1354
     38 H12         2.3119    1.1152    1.4914 H         1 <0>         0.0825
     39 H13         2.7459   -0.4465    2.2369 H         1 <0>         0.0779
     40 H14         4.0164    0.0059    0.1088 H         1 <0>         0.0718
     41 H15         3.0271   -1.4692    0.0265 H         1 <0>         0.0662
     42 H16        -0.8459   -0.5081   -2.5147 H         1 <0>         0.0689
     43 H17        -0.1095    1.0991   -2.3698 H         1 <0>         0.0745
     44 H18         1.0756   -1.2932   -3.8622 H         1 <0>         0.0665
     45 H19         0.3780    0.1780   -4.5966 H         1 <0>         0.0657
     46 H20         4.3945    1.4651   -2.1977 H         1 <0>         0.0833
     47 H21         5.1658   -0.1560   -2.1788 H         1 <0>         0.0732
     48 H22         5.3932    0.4963   -4.6973 H         1 <0>         0.1276
     49 H23         3.8006    2.3726   -6.5283 H         1 <0>         0.1333
     50 H24         3.2208    2.2781   -8.9411 H         1 <0>         0.1365
     51 H25         2.0210    0.3175   -9.8184 H         1 <0>         0.1560
     52 H26         1.9407   -1.4695   -6.0749 H         1 <0>         0.1543
     53 H27         1.3289    1.9673   -2.2854 H         1 <0>         0.0754
     54 H28         2.9198    2.4296   -2.9363 H         1 <0>         0.0576
     55 H29         1.4840    2.4633   -3.9878 H         1 <0>         0.0519
@<TRIPOS>BOND
     1    1    2 1
     2    1   30 1
     3    1   31 1
     4    1   32 1
     5    2    8 1
     6    2   13 1
     7    2    3 1
     8    3    4 1
     9    3   33 1
    10    3   34 1
    11    4    5 1
    12    4   35 1
    13    4   36 1
    14    5    6 2
    15    5    7 1
    16    7    8 2
    17    7   37 1
    18    8    9 1
    19    9   10 1
    20    9   38 1
    21    9   39 1
    22   10   11 1
    23   10   40 1
    24   10   41 1
    25   11   12 1
    26   11   18 1
    27   11   13 1
    28   13   14 1
    29   13   15 1
    30   15   16 1
    31   15   42 1
    32   15   43 1
    33   16   17 1
    34   16   44 1
    35   16   45 1
    36   17   22 1
    37   17   18 1
    38   17   29 1
    39   18   19 1
    40   18   20 1
    41   20   21 1
    42   20   46 1
    43   20   47 1
    44   21   22 2
    45   21   48 1
    46   22   23 1
    47   23   28 ar
    48   23   24 ar
    49   24   25 ar
    50   24   49 1
    51   25   26 ar
    52   25   50 1
    53   26   27 ar
    54   26   51 1
    55   27   28 ar
    56   28   52 1
    57   29   53 1
    58   29   54 1
    59   29   55 1
@<TRIPOS>MOLECULE
ZINC03932545
   56    60     0     0     0
SMALL
USER_CHARGES

@<TRIPOS>ATOM
      1 C1          0.5672    1.4355    0.2766 C.3       1 <0>        -0.1437
      2 C2          0.6803   -0.0902    0.2606 C.3       1 <0>        -0.0160
      3 C3         -0.6802   -0.6817    0.6019 C.3       1 <0>        -0.1069
      4 C4         -0.6086   -1.6908    1.7382 C.3       1 <0>        -0.0699
      5 C5          0.1156   -1.1163    2.9305 C.2       1 <0>         0.1065
      6 C6          1.3003   -0.5120    2.6977 C.2       1 <0>        -0.2698
      7 C7          1.7210   -0.5041    1.2599 C.2       1 <0>        -0.0529
      8 C8          2.9494   -0.8416    0.9254 C.2       1 <0>        -0.1600
      9 C9          3.4539   -0.8714   -0.4845 C.3       1 <0>        -0.0805
     10 C10         2.5257   -0.0769   -1.4097 C.3       1 <0>        -0.0770
     11 H1          2.6274    0.9930   -1.2280 H         1 <0>         0.0910
     12 C11         1.0778   -0.5361   -1.1506 C.3       1 <0>        -0.0678
     13 H2          1.0437   -1.6240   -1.2095 H         1 <0>         0.0721
     14 C12         0.0791    0.0512   -2.1440 C.3       1 <0>        -0.1267
     15 C13         0.5074   -0.1647   -3.6041 C.3       1 <0>        -0.0997
     16 C14         1.8828    0.4468   -3.7484 C.3       1 <0>        -0.0258
     17 C15         2.8636   -0.4084   -2.8516 C.3       1 <0>        -0.0770
     18 H3          2.7360   -1.4724   -3.0508 H         1 <0>         0.0867
     19 C16         4.2061    0.1167   -3.3796 C.3       1 <0>        -0.1012
     20 C17         3.9176    0.2588   -4.8742 C.2       1 <0>        -0.0770
     21 C18         2.5493    0.4182   -5.0837 C.2       1 <0>        -0.1549
     22 C19         1.8684    0.5451   -6.3895 C.ar      1 <0>        -0.0050
     23 C20         1.2234    1.7359   -6.7429 C.ar      1 <0>         0.0081
     24 C21         0.6008    1.8034   -7.9768 C.ar      1 <0>        -0.1179
     25 C22         0.6355    0.7025   -8.8138 C.ar      1 <0>         0.1229
     26 N1          1.2512   -0.4070   -8.4540 N.ar      1 <0>        -0.4359
     27 C23         1.8629   -0.5179   -7.2928 C.ar      1 <0>         0.1248
     28 C24         1.8628    1.8817   -3.2176 C.3       1 <0>        -0.1583
     29 O1         -0.4004   -1.2027    4.1798 O.3       1 <0>        -0.4781
     30 H4          1.4908    1.8723   -0.1034 H         1 <0>         0.0580
     31 H5         -0.2669    1.7447   -0.3532 H         1 <0>         0.0605
     32 H6          0.3973    1.7765    1.2978 H         1 <0>         0.0596
     33 H7         -1.3537    0.1257    0.8893 H         1 <0>         0.0694
     34 H8         -1.0821   -1.1752   -0.2830 H         1 <0>         0.0776
     35 H9         -1.6202   -1.9685    2.0340 H         1 <0>         0.0808
     36 H10        -0.0809   -2.5802    1.3938 H         1 <0>         0.0858
     37 H11         1.8992   -0.0821    3.4870 H         1 <0>         0.1271
     38 H12         3.6340   -1.1136    1.7152 H         1 <0>         0.1054
     39 H13         4.4525   -0.4358   -0.5177 H         1 <0>         0.0724
     40 H14         3.5025   -1.9052   -0.8266 H         1 <0>         0.0725
     41 H15        -0.8918   -0.4190   -1.9879 H         1 <0>         0.0679
     42 H16        -0.0153    1.1211   -1.9585 H         1 <0>         0.0780
     43 H17         0.5481   -1.2309   -3.8271 H         1 <0>         0.0656
     44 H18        -0.1935    0.3313   -4.2755 H         1 <0>         0.0581
     45 H19         4.4494    1.0820   -2.9357 H         1 <0>         0.0965
     46 H20         5.0039   -0.6046   -3.2030 H         1 <0>         0.0874
     47 H21         4.6614    0.2227   -5.6565 H         1 <0>         0.1376
     48 H22         1.2115    2.5803   -6.0696 H         1 <0>         0.1752
     49 H23         0.0930    2.7060   -8.2831 H         1 <0>         0.1877
     50 H24         0.1501    0.7523   -9.7773 H         1 <0>         0.2106
     51 H25         2.3606   -1.4413   -7.0358 H         1 <0>         0.2079
     52 H26         1.4887    1.8852   -2.1938 H         1 <0>         0.0836
     53 H27         2.8731    2.2903   -3.2367 H         1 <0>         0.0607
     54 H28         1.2122    2.4918   -3.8442 H         1 <0>         0.0513
     55 H29         0.1527   -0.7990    4.8626 H         1 <0>         0.3995
     56 H30         1.2574   -1.1614   -9.0638 H         1 <0>         0.4529
@<TRIPOS>BOND
     1    1    2 1
     2    1   30 1
     3    1   31 1
     4    1   32 1
     5    2    7 1
     6    2   12 1
     7    2    3 1
     8    3    4 1
     9    3   33 1
    10    3   34 1
    11    4    5 1
    12    4   35 1
    13    4   36 1
    14    5    6 2
    15    5   29 1
    16    6    7 1
    17    6   37 1
    18    7    8 2
    19    8    9 1
    20    8   38 1
    21    9   10 1
    22    9   39 1
    23    9   40 1
    24   10   11 1
    25   10   17 1
    26   10   12 1
    27   12   13 1
    28   12   14 1
    29   14   15 1
    30   14   41 1
    31   14   42 1
    32   15   16 1
    33   15   43 1
    34   15   44 1
    35   16   21 1
    36   16   17 1
    37   16   28 1
    38   17   18 1
    39   17   19 1
    40   19   20 1
    41   19   45 1
    42   19   46 1
    43   20   21 2
    44   20   47 1
    45   21   22 1
    46   22   27 ar
    47   22   23 ar
    48   23   24 ar
    49   23   48 1
    50   24   25 ar
    51   24   49 1
    52   25   26 ar
    53   25   50 1
    54   26   27 ar
    55   26   56 1
    56   27   51 1
    57   28   52 1
    58   28   53 1
    59   28   54 1
    60   29   55 1
@<TRIPOS>MOLECULE
ZINC05921059
   65    68     0     0     0
SMALL
USER_CHARGES
dimethyl-oxo-N-tert-butyl-BLAHcarboxamide
@<TRIPOS>ATOM
      1 C1          5.9640    5.7708    2.3698 C.3       1 <0>        -0.1484
      2 C2          5.4355    5.2037    1.0526 C.3       1 <0>        -0.0317
      3 C3          3.9355    5.0112    1.1111 C.3       1 <0>        -0.1000
      4 C4          3.6286    3.5223    1.3488 C.3       1 <0>        -0.1177
      5 C5          4.5998    2.9594    2.3825 C.3       1 <0>        -0.0672
      6 H1          4.6532    3.7152    3.1768 H         1 <0>         0.0712
      7 C6          5.9984    2.8557    1.8088 C.3       1 <0>        -0.0597
      8 H2          6.7245    3.0919    2.5856 H         1 <0>         0.0715
      9 C7          6.1211    3.8732    0.6804 C.3       1 <0>        -0.0804
     10 H3          5.6727    3.4610   -0.2363 H         1 <0>         0.0779
     11 C8          7.5613    4.3213    0.3825 C.3       1 <0>        -0.1163
     12 C9          7.3779    5.6846   -0.3351 C.3       1 <0>        -0.1247
     13 C10         5.9124    6.1192   -0.0908 C.3       1 <0>        -0.1096
     14 H4          5.3109    5.9536   -0.9785 H         1 <0>         0.1028
     15 C11         5.8561    7.5583    0.3424 C.2       1 <0>         0.5271
     16 O1          5.0046    7.9231    1.1253 O.2       1 <0>        -0.5273
     17 N1          6.7518    8.4426   -0.1393 N.am      1 <0>        -0.7267
     18 C12         6.6970    9.8445    0.2826 C.3       1 <0>         0.1681
     19 C13         6.8747    9.9277    1.8000 C.3       1 <0>        -0.1630
     20 C14         7.8161   10.6285   -0.4057 C.3       1 <0>        -0.1569
     21 C15         5.3427   10.4413   -0.1057 C.3       1 <0>        -0.1639
     22 C16         6.3455    1.4918    1.2310 C.3       1 <0>        -0.1084
     23 C17         5.8746    0.3253    2.0847 C.3       1 <0>        -0.1251
     24 C18         4.3754    0.4550    2.3236 C.3       1 <0>         0.1522
     25 H5          3.8766    0.5128    1.3487 H         1 <0>         0.0683
     26 C19         4.0756    1.7346    3.0856 C.3       1 <0>        -0.0552
     27 C20         2.5666    1.8198    3.3280 C.3       1 <0>        -0.1137
     28 C21         2.1142    0.6662    4.2212 C.3       1 <0>        -0.1365
     29 C22         2.7881   -0.6206    3.8503 C.2       1 <0>         0.5224
     30 O2          2.3560   -1.6500    4.3241 O.2       1 <0>        -0.5592
     31 N2          3.8391   -0.7004    3.0285 N.am      1 <0>        -0.7150
     32 C23         4.7646    1.6739    4.4533 C.3       1 <0>        -0.1513
     33 H6          6.9954    6.0974    2.2369 H         1 <0>         0.0472
     34 H7          5.3504    6.6193    2.6723 H         1 <0>         0.0781
     35 H8          5.9232    5.0001    3.1395 H         1 <0>         0.0558
     36 H9          3.5144    5.6049    1.9248 H         1 <0>         0.0701
     37 H10         3.4836    5.3269    0.1673 H         1 <0>         0.0608
     38 H11         3.7323    2.9745    0.4117 H         1 <0>         0.0606
     39 H12         2.6041    3.4259    1.7085 H         1 <0>         0.0689
     40 H13         8.1371    4.4364    1.2980 H         1 <0>         0.0692
     41 H14         8.0517    3.6070   -0.2827 H         1 <0>         0.0661
     42 H15         7.5610    5.5723   -1.4030 H         1 <0>         0.0712
     43 H16         8.0602    6.4226    0.0865 H         1 <0>         0.0684
     44 H17         7.4328    8.1509   -0.7655 H         1 <0>         0.3978
     45 H18         7.8395    9.5025    2.0766 H         1 <0>         0.0523
     46 H19         6.8339   10.9707    2.1139 H         1 <0>         0.0616
     47 H20         6.0775    9.3692    2.2904 H         1 <0>         0.0788
     48 H21         7.6894   10.5692   -1.4867 H         1 <0>         0.0614
     49 H22         7.7753   11.6715   -0.0918 H         1 <0>         0.0736
     50 H23         8.7808   10.2032   -0.1291 H         1 <0>         0.0613
     51 H24         4.5455    9.8828    0.3847 H         1 <0>         0.0787
     52 H25         5.3019   11.4844    0.2083 H         1 <0>         0.0620
     53 H26         5.2161   10.3821   -1.1867 H         1 <0>         0.0524
     54 H27         5.8892    1.4115    0.2416 H         1 <0>         0.0624
     55 H28         7.4290    1.4318    1.1139 H         1 <0>         0.0668
     56 H29         6.4259    0.2893    3.0185 H         1 <0>         0.0746
     57 H30         6.0645   -0.6099    1.5400 H         1 <0>         0.0670
     58 H31         2.3308    2.7717    3.8084 H         1 <0>         0.0803
     59 H32         2.0429    1.7619    2.3705 H         1 <0>         0.0732
     60 H33         2.3139    0.8983    5.2665 H         1 <0>         0.1019
     61 H34         1.0312    0.5372    4.1070 H         1 <0>         0.0987
     62 H35         4.2557   -1.5633    2.8876 H         1 <0>         0.3991
     63 H36         5.8409    1.5727    4.3138 H         1 <0>         0.0610
     64 H37         4.5544    2.5890    5.0069 H         1 <0>         0.0600
     65 H38         4.3884    0.8168    5.0119 H         1 <0>         0.0549
@<TRIPOS>BOND
     1    1    2 1
     2    1   33 1
     3    1   34 1
     4    1   35 1
     5    2    9 1
     6    2   13 1
     7    2    3 1
     8    3    4 1
     9    3   36 1
    10    3   37 1
    11    4    5 1
    12    4   38 1
    13    4   39 1
    14    5    6 1
    15    5   26 1
    16    5    7 1
    17    7    8 1
    18    7    9 1
    19    7   22 1
    20    9   10 1
    21    9   11 1
    22   11   12 1
    23   11   40 1
    24   11   41 1
    25   12   13 1
    26   12   42 1
    27   12   43 1
    28   13   14 1
    29   13   15 1
    30   15   16 2
    31   15   17 am
    32   17   18 1
    33   17   44 1
    34   18   19 1
    35   18   20 1
    36   18   21 1
    37   19   45 1
    38   19   46 1
    39   19   47 1
    40   20   48 1
    41   20   49 1
    42   20   50 1
    43   21   51 1
    44   21   52 1
    45   21   53 1
    46   22   23 1
    47   22   54 1
    48   22   55 1
    49   23   24 1
    50   23   56 1
    51   23   57 1
    52   24   25 1
    53   24   31 1
    54   24   26 1
    55   26   27 1
    56   26   32 1
    57   27   28 1
    58   27   58 1
    59   27   59 1
    60   28   29 1
    61   28   60 1
    62   28   61 1
    63   29   30 2
    64   29   31 am
    65   31   62 1
    66   32   63 1
    67   32   64 1
    68   32   65 1
@<TRIPOS>MOLECULE
ZINC05921125
   65    68     0     0     0
SMALL
USER_CHARGES
dimethyl-oxo-N-tert-butyl-BLAHcarboxamide
@<TRIPOS>ATOM
      1 C1         -1.8481   -0.5910    0.9170 C.3       1 <0>        -0.1524
      2 C2         -2.0923    0.9016    1.1481 C.3       1 <0>        -0.0518
      3 C3         -2.9146    1.4683    0.0076 C.3       1 <0>        -0.1037
      4 C4         -2.1754    1.1351   -1.2995 C.3       1 <0>        -0.1185
      5 C5         -0.7576    1.6954   -1.2938 C.3       1 <0>        -0.0631
      6 H1         -0.8149    2.7837   -1.2765 H         1 <0>         0.0724
      7 C6          0.0331    1.2159   -0.0643 C.3       1 <0>        -0.0805
      8 H2          0.1080    0.1286   -0.0781 H         1 <0>         0.0871
      9 C7         -0.7232    1.6592    1.1735 C.3       1 <0>        -0.0784
     10 H3         -0.8874    2.7365    1.1523 H         1 <0>         0.0777
     11 C8         -0.1525    1.2162    2.5115 C.3       1 <0>        -0.1128
     12 C9         -1.3830    1.2707    3.4577 C.3       1 <0>        -0.1120
     13 C10        -2.6341    1.1230    2.5562 C.3       1 <0>        -0.1029
     14 H4         -3.2344    2.0320    2.5914 H         1 <0>         0.0891
     15 C11        -3.4567   -0.0623    2.9916 C.2       1 <0>         0.5293
     16 O1         -2.9416   -0.9571    3.6279 O.2       1 <0>        -0.5318
     17 N1         -4.7648   -0.1279    2.6738 N.am      1 <0>        -0.7256
     18 C12        -5.5645   -1.2802    3.0970 C.3       1 <0>         0.1688
     19 C13        -5.5497   -1.3781    4.6238 C.3       1 <0>        -0.1642
     20 C14        -7.0050   -1.1074    2.6109 C.3       1 <0>        -0.1565
     21 C15        -4.9741   -2.5583    2.4982 C.3       1 <0>        -0.1634
     22 C16         1.4335    1.8274   -0.0850 C.3       1 <0>        -0.1095
     23 C17         2.1661    1.4074   -1.3636 C.3       1 <0>        -0.1312
     24 C18         1.3681    1.8865   -2.5739 C.3       1 <0>         0.1488
     25 H5          1.2534    2.9686   -2.5113 H         1 <0>         0.0694
     26 C19        -0.0196    1.2441   -2.5519 C.3       1 <0>        -0.0631
     27 C20        -0.7747    1.6707   -3.8115 C.3       1 <0>        -0.1164
     28 C21        -0.0834    1.0363   -5.0223 C.3       1 <0>        -0.1362
     29 C22         1.4026    1.2303   -4.9393 C.2       1 <0>         0.5204
     30 O2          2.0570    1.0611   -5.9463 O.2       1 <0>        -0.5587
     31 N2          2.0472    1.5785   -3.8218 N.am      1 <0>        -0.7150
     32 C23         0.1245   -0.2790   -2.5359 C.3       1 <0>        -0.1535
     33 H6         -1.3599   -0.7344   -0.0470 H         1 <0>         0.0674
     34 H7         -1.2094   -0.9816    1.7093 H         1 <0>         0.0649
     35 H8         -2.8008   -1.1205    0.9242 H         1 <0>         0.0522
     36 H9         -3.0053    2.5490    0.1172 H         1 <0>         0.0665
     37 H10        -3.9045    1.0122    0.0004 H         1 <0>         0.0627
     38 H11        -2.7244    1.5622   -2.1386 H         1 <0>         0.0659
     39 H12        -2.1307    0.0524   -1.4179 H         1 <0>         0.0714
     40 H13         0.6199    1.9103    2.8429 H         1 <0>         0.0665
     41 H14         0.2426    0.2022    2.4507 H         1 <0>         0.0707
     42 H15        -1.4100    2.2262    3.9815 H         1 <0>         0.0661
     43 H16        -1.3404    0.4518    4.1757 H         1 <0>         0.0847
     44 H17        -5.1768    0.5877    2.1648 H         1 <0>         0.3972
     45 H18        -5.9704   -0.4675    5.0503 H         1 <0>         0.0528
     46 H19        -6.1447   -2.2354    4.9386 H         1 <0>         0.0621
     47 H20        -4.5235   -1.5012    4.9700 H         1 <0>         0.0783
     48 H21        -7.0155   -1.0376    1.5232 H         1 <0>         0.0613
     49 H22        -7.6000   -1.9647    2.9258 H         1 <0>         0.0733
     50 H23        -7.4256   -0.1968    3.0375 H         1 <0>         0.0615
     51 H24        -3.9479   -2.6814    2.8444 H         1 <0>         0.0787
     52 H25        -5.5691   -3.4156    2.8131 H         1 <0>         0.0616
     53 H26        -4.9846   -2.4886    1.4105 H         1 <0>         0.0525
     54 H27         1.3546    2.9140   -0.0531 H         1 <0>         0.0649
     55 H28         1.9930    1.4803    0.7837 H         1 <0>         0.0709
     56 H29         3.1587    1.8575   -1.3797 H         1 <0>         0.0692
     57 H30         2.2575    0.3216   -1.3917 H         1 <0>         0.0747
     58 H31        -1.8073    1.3262   -3.7555 H         1 <0>         0.0830
     59 H32        -0.7532    2.7566   -3.9030 H         1 <0>         0.0711
     60 H33        -0.3067   -0.0303   -5.0470 H         1 <0>         0.1020
     61 H34        -0.4544    1.5033   -5.9347 H         1 <0>         0.0994
     62 H35         3.0157    1.6284   -3.8444 H         1 <0>         0.3991
     63 H36         0.6797   -0.5821   -1.6482 H         1 <0>         0.0667
     64 H37        -0.8643   -0.7374   -2.5201 H         1 <0>         0.0632
     65 H38         0.6609   -0.6026   -3.4279 H         1 <0>         0.0555
@<TRIPOS>BOND
     1    1    2 1
     2    1   33 1
     3    1   34 1
     4    1   35 1
     5    2    9 1
     6    2   13 1
     7    2    3 1
     8    3    4 1
     9    3   36 1
    10    3   37 1
    11    4    5 1
    12    4   38 1
    13    4   39 1
    14    5    6 1
    15    5   26 1
    16    5    7 1
    17    7    8 1
    18    7    9 1
    19    7   22 1
    20    9   10 1
    21    9   11 1
    22   11   12 1
    23   11   40 1
    24   11   41 1
    25   12   13 1
    26   12   42 1
    27   12   43 1
    28   13   14 1
    29   13   15 1
    30   15   16 2
    31   15   17 am
    32   17   18 1
    33   17   44 1
    34   18   19 1
    35   18   20 1
    36   18   21 1
    37   19   45 1
    38   19   46 1
    39   19   47 1
    40   20   48 1
    41   20   49 1
    42   20   50 1
    43   21   51 1
    44   21   52 1
    45   21   53 1
    46   22   23 1
    47   22   54 1
    48   22   55 1
    49   23   24 1
    50   23   56 1
    51   23   57 1
    52   24   25 1
    53   24   31 1
    54   24   26 1
    55   26   27 1
    56   26   32 1
    57   27   28 1
    58   27   58 1
    59   27   59 1
    60   28   29 1
    61   28   60 1
    62   28   61 1
    63   29   30 2
    64   29   31 am
    65   31   62 1
    66   32   63 1
    67   32   64 1
    68   32   65 1
@<TRIPOS>MOLECULE
ZINC33696847
   65    68     0     0     0
SMALL
USER_CHARGES
(1S,3aS,3bR,5aR,9aR,9bR,11aS)-N-tert-butyl-9a,11a-dimethyl-7-oxo-1,2,3,3a,3b,4,5,5a,6,8,9,9b,10,11-tetradecahydroindeno[5,4-f]quinoline-1-carboxamide
@<TRIPOS>ATOM
      1 C1          1.4804    3.2294    1.5527 C.3       1 <0>        -0.1604
      2 C2          1.2243    1.9463    0.7586 C.3       1 <0>        -0.0146
      3 C3          1.1364    2.2342   -0.7175 C.3       1 <0>        -0.1005
      4 C4         -0.3114    2.5162   -1.1466 C.3       1 <0>        -0.1130
      5 C5         -1.1329    3.0241    0.0262 C.3       1 <0>        -0.0697
      6 H1         -0.5771    3.8817    0.4331 H         1 <0>         0.0862
      7 C6         -1.2924    1.9192    1.0770 C.3       1 <0>        -0.0794
      8 H2         -1.9863    1.1332    0.7443 H         1 <0>         0.0641
      9 C7         -0.0090    1.1735    1.2652 C.3       1 <0>        -0.0853
     10 H3         -0.2923    0.2762    0.6955 H         1 <0>         0.0712
     11 C8          0.4081    0.8175    2.6981 C.3       1 <0>        -0.1144
     12 C9          1.9069    0.4382    2.5415 C.3       1 <0>        -0.1172
     13 C10         2.3469    0.9580    1.1497 C.3       1 <0>        -0.1071
     14 H4          2.5164    0.1558    0.4164 H         1 <0>         0.1010
     15 C11         3.6558    1.6901    1.2464 C.2       1 <0>         0.5213
     16 O1          3.8573    2.6659    0.5550 O.2       1 <0>        -0.5330
     17 N1          4.6056    1.2623    2.1016 N.am      1 <0>        -0.7366
     18 C12         5.8815    1.9760    2.1959 C.3       1 <0>         0.1721
     19 C13         5.6261    3.4233    2.6211 C.3       1 <0>        -0.1645
     20 C14         6.7742    1.2900    3.2320 C.3       1 <0>        -0.1573
     21 C15         6.5768    1.9599    0.8331 C.3       1 <0>        -0.1656
     22 C16        -1.8906    2.5167    2.3446 C.3       1 <0>        -0.1077
     23 C17        -3.2606    3.1225    1.9973 C.3       1 <0>        -0.1279
     24 C18        -3.5718    2.8926    0.5263 C.3       1 <0>         0.1538
     25 H5         -3.6119    1.8043    0.3711 H         1 <0>         0.0654
     26 C19        -2.5155    3.5249   -0.3794 C.3       1 <0>        -0.0597
     27 C20        -2.8442    3.1760   -1.8293 C.3       1 <0>        -0.1133
     28 C21        -4.1883    3.7920   -2.2177 C.3       1 <0>        -0.1382
     29 C22        -5.1895    3.7174   -1.1072 C.2       1 <0>         0.5196
     30 O2         -6.3479    3.9712   -1.3644 O.2       1 <0>        -0.5637
     31 N2         -4.8893    3.3868    0.1545 N.am      1 <0>        -0.7298
     32 C23        -2.5364    5.0498   -0.2090 C.3       1 <0>        -0.1463
     33 H6          2.3684    3.7387    1.1501 H         1 <0>         0.0862
     34 H7          1.6495    2.9785    2.6103 H         1 <0>         0.0493
     35 H8          0.6073    3.8932    1.4684 H         1 <0>         0.0579
     36 H9          1.7498    3.1155   -0.9563 H         1 <0>         0.0726
     37 H10         1.5059    1.3661   -1.2831 H         1 <0>         0.0587
     38 H11        -0.3169    3.2784   -1.9397 H         1 <0>         0.0661
     39 H12        -0.7687    1.5901   -1.5250 H         1 <0>         0.0592
     40 H13         0.2587    1.6901    3.3510 H         1 <0>         0.0732
     41 H14        -0.2047   -0.0210    3.0608 H         1 <0>         0.0660
     42 H15         2.4913    0.9145    3.3426 H         1 <0>         0.0708
     43 H16         2.0174   -0.6543    2.6069 H         1 <0>         0.0715
     44 H17         4.4228    0.3773    2.7288 H         1 <0>         0.4162
     45 H18         6.5842    3.9591    2.6919 H         1 <0>         0.0604
     46 H19         5.1262    3.4348    3.6009 H         1 <0>         0.0520
     47 H20         4.9843    3.9165    1.8762 H         1 <0>         0.0789
     48 H21         7.7322    1.8259    3.3028 H         1 <0>         0.0722
     49 H22         6.9578    0.2494    2.9263 H         1 <0>         0.0614
     50 H23         6.2743    1.3015    4.2118 H         1 <0>         0.0615
     51 H24         7.5348    2.4958    0.9039 H         1 <0>         0.0607
     52 H25         5.9350    2.4530    0.0882 H         1 <0>         0.0789
     53 H26         6.7604    0.9193    0.5275 H         1 <0>         0.0518
     54 H27        -2.0096    1.7272    3.1013 H         1 <0>         0.0680
     55 H28        -1.2213    3.2986    2.7327 H         1 <0>         0.0681
     56 H29        -4.0387    2.6453    2.6112 H         1 <0>         0.0695
     57 H30        -3.2455    4.2036    2.1998 H         1 <0>         0.0713
     58 H31        -2.0582    3.5722   -2.4890 H         1 <0>         0.0832
     59 H32        -2.8993    2.0830   -1.9400 H         1 <0>         0.0705
     60 H33        -4.0450    4.8515   -2.4765 H         1 <0>         0.1001
     61 H34        -4.6007    3.2553   -3.0848 H         1 <0>         0.0991
     62 H35        -5.6714    3.4975    0.9201 H         1 <0>         0.4191
     63 H36        -3.5252    5.4372   -0.4957 H         1 <0>         0.0546
     64 H37        -1.7655    5.5011   -0.8510 H         1 <0>         0.0611
     65 H38        -2.3335    5.3041    0.8418 H         1 <0>         0.0601
@<TRIPOS>BOND
     1    1    2 1
     2    1   33 1
     3    1   34 1
     4    1   35 1
     5    2    9 1
     6    2   13 1
     7    2    3 1
     8    3    4 1
     9    3   36 1
    10    3   37 1
    11    4    5 1
    12    4   38 1
    13    4   39 1
    14    5    6 1
    15    5   26 1
    16    5    7 1
    17    7    8 1
    18    7    9 1
    19    7   22 1
    20    9   10 1
    21    9   11 1
    22   11   12 1
    23   11   40 1
    24   11   41 1
    25   12   13 1
    26   12   42 1
    27   12   43 1
    28   13   14 1
    29   13   15 1
    30   15   16 2
    31   15   17 am
    32   17   18 1
    33   17   44 1
    34   18   19 1
    35   18   20 1
    36   18   21 1
    37   19   45 1
    38   19   46 1
    39   19   47 1
    40   20   48 1
    41   20   49 1
    42   20   50 1
    43   21   51 1
    44   21   52 1
    45   21   53 1
    46   22   23 1
    47   22   54 1
    48   22   55 1
    49   23   24 1
    50   23   56 1
    51   23   57 1
    52   24   25 1
    53   24   31 1
    54   24   26 1
    55   26   27 1
    56   26   32 1
    57   27   28 1
    58   27   58 1
    59   27   59 1
    60   28   29 1
    61   28   60 1
    62   28   61 1
    63   29   30 2
    64   29   31 am
    65   31   62 1
    66   32   63 1
    67   32   64 1
    68   32   65 1
@<TRIPOS>MOLECULE
ZINC33696850
   65    68     0     0     0
SMALL
USER_CHARGES
(1S,3aS,3bR,5aR,9aR,9bS,11aS)-N-tert-butyl-9a,11a-dimethyl-7-oxo-1,2,3,3a,3b,4,5,5a,6,8,9,9b,10,11-tetradecahydroindeno[5,4-f]quinoline-1-carboxamide
@<TRIPOS>ATOM
      1 C1         -2.5835    6.2780   -1.3583 C.3       1 <0>        -0.1608
      2 C2         -1.9193    5.9903   -0.0142 C.3       1 <0>        -0.0176
      3 C3         -1.5595    4.5278    0.1035 C.3       1 <0>        -0.1040
      4 C4         -2.8636    3.7088    0.1766 C.3       1 <0>        -0.1094
      5 C5         -3.6859    4.1174    1.3868 C.3       1 <0>        -0.0620
      6 H1         -3.0418    3.9037    2.2525 H         1 <0>         0.0679
      7 C6         -4.0372    5.6137    1.3527 C.3       1 <0>        -0.0754
      8 H2         -4.4631    5.9776    2.2994 H         1 <0>         0.0645
      9 C7         -2.7822    6.4086    1.1924 C.3       1 <0>        -0.0900
     10 H3         -2.3890    6.1649    2.1904 H         1 <0>         0.0705
     11 C8         -2.8800    7.9255    0.9951 C.3       1 <0>        -0.1142
     12 C9         -1.4259    8.2977    0.5842 C.3       1 <0>        -0.1176
     13 C10        -0.7456    6.9785    0.1330 C.3       1 <0>        -0.1051
     14 H4          0.0408    6.6318    0.8195 H         1 <0>         0.1020
     15 C11        -0.0635    7.1642   -1.1940 C.2       1 <0>         0.5231
     16 O1          0.0659    6.2219   -1.9465 O.2       1 <0>        -0.5354
     17 N1          0.4041    8.3779   -1.5474 N.am      1 <0>        -0.7369
     18 C12         1.0688    8.5588   -2.8403 C.3       1 <0>         0.1717
     19 C13         0.1004    8.1934   -3.9671 C.3       1 <0>        -0.1645
     20 C14         1.5003   10.0188   -2.9921 C.3       1 <0>        -0.1573
     21 C15         2.2998    7.6531   -2.9121 C.3       1 <0>        -0.1656
     22 C16        -5.1205    5.8683    0.3165 C.3       1 <0>        -0.1170
     23 C17        -6.4244    5.2052    0.7857 C.3       1 <0>        -0.1280
     24 C18        -6.1276    4.2174    1.9058 C.3       1 <0>         0.1577
     25 H5         -5.8780    4.7867    2.8133 H         1 <0>         0.0654
     26 C19        -4.9603    3.2963    1.5512 C.3       1 <0>        -0.0564
     27 C20        -4.7692    2.3158    2.7200 C.3       1 <0>        -0.1170
     28 C21        -5.9868    1.3990    2.8254 C.3       1 <0>        -0.1397
     29 C22        -7.2578    2.1919    2.7219 C.2       1 <0>         0.5194
     30 O2         -8.2883    1.6728    3.0925 O.2       1 <0>        -0.5623
     31 N2         -7.3113    3.4362    2.2416 N.am      1 <0>        -0.7296
     32 C23        -5.2802    2.5112    0.2830 C.3       1 <0>        -0.1453
     33 H6         -1.9174    5.9569   -2.1726 H         1 <0>         0.0799
     34 H7         -2.7781    7.3570   -1.4476 H         1 <0>         0.0502
     35 H8         -3.5336    5.7275   -1.4231 H         1 <0>         0.0639
     36 H9         -0.9728    4.2227   -0.7755 H         1 <0>         0.0773
     37 H10        -0.9643    4.3688    1.0148 H         1 <0>         0.0585
     38 H11        -3.4576    3.8833   -0.7326 H         1 <0>         0.0678
     39 H12        -2.6207    2.6389    0.2562 H         1 <0>         0.0643
     40 H13        -3.6180    8.1463    0.2099 H         1 <0>         0.0725
     41 H14        -3.1944    8.3983    1.9372 H         1 <0>         0.0664
     42 H15        -1.4528    9.0278   -0.2381 H         1 <0>         0.0711
     43 H16        -0.9019    8.7357    1.4465 H         1 <0>         0.0728
     44 H17         0.2866    9.2326   -0.8650 H         1 <0>         0.4162
     45 H18         0.5995    8.3292   -4.9379 H         1 <0>         0.0603
     46 H19        -0.7846    8.8446   -3.9155 H         1 <0>         0.0521
     47 H20        -0.2098    7.1437   -3.8579 H         1 <0>         0.0790
     48 H21         1.9994   10.1546   -3.9629 H         1 <0>         0.0723
     49 H22         2.1965   10.2815   -2.1820 H         1 <0>         0.0614
     50 H23         0.6152   10.6700   -2.9406 H         1 <0>         0.0614
     51 H24         2.7988    7.7890   -3.8829 H         1 <0>         0.0607
     52 H25         1.9895    6.6034   -2.8030 H         1 <0>         0.0788
     53 H26         2.9960    7.9158   -2.1020 H         1 <0>         0.0519
     54 H27        -5.2738    6.9518    0.2050 H         1 <0>         0.0676
     55 H28        -4.8124    5.4403   -0.6489 H         1 <0>         0.0759
     56 H29        -7.1158    5.9768    1.1553 H         1 <0>         0.0685
     57 H30        -6.8878    4.6709   -0.0567 H         1 <0>         0.0715
     58 H31        -3.8688    1.7085    2.5456 H         1 <0>         0.0785
     59 H32        -4.6549    2.8802    3.6572 H         1 <0>         0.0693
     60 H33        -5.9611    0.6602    2.0109 H         1 <0>         0.1009
     61 H34        -5.9706    0.8777    3.7939 H         1 <0>         0.0990
     62 H35        -8.3132    3.8684    2.1024 H         1 <0>         0.4184
     63 H36        -6.2025    1.9310    0.4338 H         1 <0>         0.0541
     64 H37        -4.4495    1.8268    0.0561 H         1 <0>         0.0643
     65 H38        -5.4193    3.2097   -0.5553 H         1 <0>         0.0623
@<TRIPOS>BOND
     1    1    2 1
     2    1   33 1
     3    1   34 1
     4    1   35 1
     5    2    9 1
     6    2   13 1
     7    2    3 1
     8    3    4 1
     9    3   36 1
    10    3   37 1
    11    4    5 1
    12    4   38 1
    13    4   39 1
    14    5    6 1
    15    5   26 1
    16    5    7 1
    17    7    8 1
    18    7    9 1
    19    7   22 1
    20    9   10 1
    21    9   11 1
    22   11   12 1
    23   11   40 1
    24   11   41 1
    25   12   13 1
    26   12   42 1
    27   12   43 1
    28   13   14 1
    29   13   15 1
    30   15   16 2
    31   15   17 am
    32   17   18 1
    33   17   44 1
    34   18   19 1
    35   18   20 1
    36   18   21 1
    37   19   45 1
    38   19   46 1
    39   19   47 1
    40   20   48 1
    41   20   49 1
    42   20   50 1
    43   21   51 1
    44   21   52 1
    45   21   53 1
    46   22   23 1
    47   22   54 1
    48   22   55 1
    49   23   24 1
    50   23   56 1
    51   23   57 1
    52   24   25 1
    53   24   31 1
    54   24   26 1
    55   26   27 1
    56   26   32 1
    57   27   28 1
    58   27   58 1
    59   27   59 1
    60   28   29 1
    61   28   60 1
    62   28   61 1
    63   29   30 2
    64   29   31 am
    65   31   62 1
    66   32   63 1
    67   32   64 1
    68   32   65 1
@<TRIPOS>MOLECULE
ZINC05649661
   68    71     0     0     0
SMALL
USER_CHARGES
N,N-diethyl-trimethyl-oxo-BLAHcarboxamide
@<TRIPOS>ATOM
      1 C1         -1.0937    1.9102    0.8728 C.3       1 <0>        -0.1685
      2 C2         -1.0974    1.0026    2.1045 C.3       1 <0>         0.1116
      3 N1         -2.4534    0.4984    2.3355 N.am      1 <0>        -0.6144
      4 C3         -3.3784    1.2485    3.1887 C.3       1 <0>         0.0999
      5 C4         -4.2576    2.1495    2.3192 C.3       1 <0>        -0.1766
      6 C5         -2.8499   -0.6555    1.7630 C.2       1 <0>         0.5282
      7 O1         -2.1192   -1.2275    0.9821 O.2       1 <0>        -0.5325
      8 C6         -4.1989   -1.2340    2.0925 C.3       1 <0>        -0.1153
      9 H1         -4.8693   -0.4805    2.4925 H         1 <0>         0.0938
     10 C7         -4.8174   -1.9384    0.8540 C.3       1 <0>        -0.1110
     11 C8         -5.5371   -3.2033    1.3912 C.3       1 <0>        -0.1145
     12 C9         -5.4219   -3.0797    2.9123 C.3       1 <0>        -0.0706
     13 H2         -6.2006   -2.3543    3.2308 H         1 <0>         0.0668
     14 C10        -4.0476   -2.4054    3.0972 C.3       1 <0>        -0.0385
     15 C11        -3.8425   -1.9638    4.5253 C.3       1 <0>        -0.1086
     16 C12        -4.5252   -2.9337    5.5048 C.3       1 <0>        -0.1064
     17 C13        -4.5997   -4.3284    4.9036 C.3       1 <0>        -0.0711
     18 H3         -3.6112   -4.6220    4.5464 H         1 <0>         0.0853
     19 C14        -5.5905   -4.3167    3.7323 C.3       1 <0>        -0.0741
     20 H4         -6.6092   -4.2696    4.1669 H         1 <0>         0.0685
     21 C15        -5.4833   -5.6309    2.9741 C.3       1 <0>        -0.1056
     22 C16        -5.8420   -6.7767    3.9389 C.3       1 <0>        -0.1260
     23 C17        -6.1827   -6.2182    5.3111 C.3       1 <0>         0.1568
     24 H5         -7.0470   -5.5509    5.2043 H         1 <0>         0.0680
     25 C18        -5.0284   -5.4028    5.8954 C.3       1 <0>        -0.0627
     26 C19        -5.4730   -4.8030    7.2262 C.3       1 <0>        -0.1132
     27 C20        -5.7541   -5.9219    8.2296 C.3       1 <0>        -0.1350
     28 C21        -6.4198   -7.0983    7.5848 C.2       1 <0>         0.5164
     29 O2         -6.8439   -7.9794    8.3040 O.2       1 <0>        -0.5574
     30 N2         -6.5804   -7.2451    6.2636 N.am      1 <0>        -0.6023
     31 C22        -7.1932   -8.4827    5.7815 C.3       1 <0>         0.0700
     32 C23        -3.8242   -6.3247    6.1382 C.3       1 <0>        -0.1454
     33 C24        -2.8877   -3.2762    2.6082 C.3       1 <0>        -0.1421
     34 H6         -1.4235    1.3430    0.0025 H         1 <0>         0.0593
     35 H7         -0.0848    2.2854    0.7010 H         1 <0>         0.0644
     36 H8         -1.7701    2.7490    1.0375 H         1 <0>         0.0559
     37 H9         -0.4211    0.1638    1.9398 H         1 <0>         0.0813
     38 H10        -0.7676    1.5699    2.9749 H         1 <0>         0.0746
     39 H11        -4.0078    0.5519    3.7426 H         1 <0>         0.0818
     40 H12        -2.8109    1.8612    3.8891 H         1 <0>         0.0806
     41 H13        -3.6253    2.7881    1.7023 H         1 <0>         0.0624
     42 H14        -4.8872    1.5330    1.6776 H         1 <0>         0.0575
     43 H15        -4.8866    2.7693    2.9581 H         1 <0>         0.0683
     44 H16        -5.5379   -1.2792    0.3703 H         1 <0>         0.0635
     45 H17        -4.0369   -2.2213    0.1498 H         1 <0>         0.0825
     46 H18        -5.0475   -4.1040    1.0355 H         1 <0>         0.0731
     47 H19        -6.5853   -3.1922    1.0938 H         1 <0>         0.0654
     48 H20        -2.7694   -1.9162    4.7489 H         1 <0>         0.0628
     49 H21        -4.2599   -0.9576    4.6638 H         1 <0>         0.0628
     50 H22        -3.9507   -2.9623    6.4348 H         1 <0>         0.0671
     51 H23        -5.5338   -2.5755    5.7269 H         1 <0>         0.0642
     52 H24        -4.4694   -5.7747    2.6057 H         1 <0>         0.0697
     53 H25        -6.1831   -5.6358    2.1378 H         1 <0>         0.0700
     54 H26        -5.0118   -7.4763    3.9960 H         1 <0>         0.0725
     55 H27        -6.7130   -7.2951    3.5206 H         1 <0>         0.0688
     56 H28        -4.6843   -4.1583    7.6223 H         1 <0>         0.0827
     57 H29        -6.3777   -4.2092    7.0782 H         1 <0>         0.0712
     58 H30        -4.8215   -6.2415    8.6962 H         1 <0>         0.1009
     59 H31        -6.4090   -5.5342    9.0170 H         1 <0>         0.0987
     60 H32        -7.4341   -9.1233    6.6299 H         1 <0>         0.0913
     61 H33        -8.1055   -8.2470    5.2336 H         1 <0>         0.0583
     62 H34        -6.4966   -9.0001    5.1218 H         1 <0>         0.0597
     63 H35        -2.9973   -5.7427    6.5450 H         1 <0>         0.0607
     64 H36        -4.1016   -7.1059    6.8460 H         1 <0>         0.0540
     65 H37        -3.5193   -6.7798    5.1959 H         1 <0>         0.0600
     66 H38        -1.9629   -2.7001    2.6389 H         1 <0>         0.0580
     67 H39        -2.7928   -4.1502    3.2525 H         1 <0>         0.0577
     68 H40        -3.0813   -3.5983    1.5851 H         1 <0>         0.0651
@<TRIPOS>BOND
     1    1    2 1
     2    1   34 1
     3    1   35 1
     4    1   36 1
     5    2    3 1
     6    2   37 1
     7    2   38 1
     8    3    4 1
     9    3    6 am
    10    4    5 1
    11    4   39 1
    12    4   40 1
    13    5   41 1
    14    5   42 1
    15    5   43 1
    16    6    7 2
    17    6    8 1
    18    8    9 1
    19    8   14 1
    20    8   10 1
    21   10   11 1
    22   10   44 1
    23   10   45 1
    24   11   12 1
    25   11   46 1
    26   11   47 1
    27   12   13 1
    28   12   19 1
    29   12   14 1
    30   14   15 1
    31   14   33 1
    32   15   16 1
    33   15   48 1
    34   15   49 1
    35   16   17 1
    36   16   50 1
    37   16   51 1
    38   17   18 1
    39   17   25 1
    40   17   19 1
    41   19   20 1
    42   19   21 1
    43   21   22 1
    44   21   52 1
    45   21   53 1
    46   22   23 1
    47   22   54 1
    48   22   55 1
    49   23   24 1
    50   23   30 1
    51   23   25 1
    52   25   26 1
    53   25   32 1
    54   26   27 1
    55   26   56 1
    56   26   57 1
    57   27   28 1
    58   27   58 1
    59   27   59 1
    60   28   29 2
    61   28   30 am
    62   30   31 1
    63   31   60 1
    64   31   61 1
    65   31   62 1
    66   32   63 1
    67   32   64 1
    68   32   65 1
    69   33   66 1
    70   33   67 1
    71   33   68 1
@<TRIPOS>MOLECULE
ZINC05649664
   68    71     0     0     0
SMALL
USER_CHARGES
N,N-diethyl-trimethyl-oxo-BLAHcarboxamide
@<TRIPOS>ATOM
      1 C1         -0.1675   -3.9970    2.9733 C.3       1 <0>        -0.1669
      2 C2          1.1931   -3.3170    3.1380 C.3       1 <0>         0.1089
      3 N1          1.4903   -2.5236    1.9428 N.am      1 <0>        -0.6151
      4 C3          2.2053   -3.1326    0.8184 C.3       1 <0>         0.1024
      5 C4          3.7039   -2.8581    0.9582 C.3       1 <0>        -0.1844
      6 C5          1.1060   -1.2334    1.8777 C.2       1 <0>         0.5220
      7 O1          0.5866   -0.7062    2.8385 O.2       1 <0>        -0.5283
      8 C6          1.3217   -0.4460    0.6110 C.3       1 <0>        -0.1067
      9 H1          1.8562   -1.0506   -0.1217 H         1 <0>         0.0933
     10 C7         -0.0324    0.0145    0.0342 C.3       1 <0>        -0.1066
     11 C8          0.0048    1.5583    0.0068 C.3       1 <0>        -0.1218
     12 C9          1.5253    1.8924   -0.0449 C.3       1 <0>        -0.0714
     13 H2          1.7395    2.9102    0.2811 H         1 <0>         0.0870
     14 C10         2.1077    0.8367    0.9129 C.3       1 <0>        -0.0369
     15 C11         3.5987    0.6608    0.7350 C.3       1 <0>        -0.1133
     16 C12         3.9888    0.3878   -0.6963 C.3       1 <0>        -0.1185
     17 C13         3.5056    1.5575   -1.5613 C.3       1 <0>        -0.0659
     18 H3          3.9336    2.4891   -1.1910 H         1 <0>         0.0815
     19 C14         1.9812    1.6241   -1.4810 C.3       1 <0>        -0.0806
     20 H4          1.5663    0.6725   -1.8133 H         1 <0>         0.0768
     21 C15         1.4690    2.7379   -2.3966 C.3       1 <0>        -0.1121
     22 C16         1.8470    2.4202   -3.8485 C.3       1 <0>        -0.1323
     23 C17         2.6727    1.1357   -3.8719 C.3       1 <0>         0.1518
     24 H5          2.0752    0.3279   -3.4495 H         1 <0>         0.0737
     25 C18         3.9237    1.3220   -3.0123 C.3       1 <0>        -0.0643
     26 C19         4.7868    0.0639   -3.1265 C.3       1 <0>        -0.1141
     27 C20         5.3289    0.0067   -4.5788 C.3       1 <0>        -0.1379
     28 C21         4.2172    0.2423   -5.5592 C.2       1 <0>         0.5154
     29 O2          4.3984   -0.0767   -6.7152 O.2       1 <0>        -0.5559
     30 N2          3.0400    0.7822   -5.2332 N.am      1 <0>        -0.6008
     31 C22         2.0691    1.0304   -6.3018 C.3       1 <0>         0.0764
     32 C23         4.7145    2.5303   -3.5177 C.3       1 <0>        -0.1473
     33 C24         1.8251    1.2644    2.3545 C.3       1 <0>        -0.1388
     34 H6         -0.9389   -3.2386    2.8396 H         1 <0>         0.0576
     35 H7         -0.1444   -4.6496    2.1006 H         1 <0>         0.0546
     36 H8         -0.3887   -4.5873    3.8626 H         1 <0>         0.0662
     37 H9          1.9645   -4.0754    3.2717 H         1 <0>         0.0744
     38 H10         1.1700   -2.6645    4.0108 H         1 <0>         0.0837
     39 H11         2.0315   -4.2087    0.8174 H         1 <0>         0.0799
     40 H12         1.8433   -2.7052   -0.1166 H         1 <0>         0.0787
     41 H13         4.2359   -3.3112    0.1217 H         1 <0>         0.0687
     42 H14         3.8777   -1.7821    0.9593 H         1 <0>         0.0692
     43 H15         4.0659   -3.2855    1.8933 H         1 <0>         0.0590
     44 H16        -0.8466   -0.3284    0.6725 H         1 <0>         0.0677
     45 H17        -0.1599   -0.3742   -0.9761 H         1 <0>         0.0681
     46 H18        -0.5009    1.9377   -0.8811 H         1 <0>         0.0708
     47 H19        -0.4467    1.9681    0.9103 H         1 <0>         0.0700
     48 H20         4.1067    1.5679    1.0623 H         1 <0>         0.0668
     49 H21         3.9349   -0.1760    1.3473 H         1 <0>         0.0631
     50 H22         3.5082   -0.5341   -1.0239 H         1 <0>         0.0640
     51 H23         5.0708    0.2894   -0.7832 H         1 <0>         0.0738
     52 H24         0.3838    2.8026   -2.3179 H         1 <0>         0.0688
     53 H25         1.9121    3.6874   -2.0964 H         1 <0>         0.0675
     54 H26         2.4385    3.2422   -4.2517 H         1 <0>         0.0731
     55 H27         0.9479    2.2876   -4.4503 H         1 <0>         0.0705
     56 H28         5.6206    0.1256   -2.4271 H         1 <0>         0.0845
     57 H29         4.1841   -0.8165   -2.9037 H         1 <0>         0.0741
     58 H30         5.7647   -0.9763   -4.7571 H         1 <0>         0.0981
     59 H31         6.0951    0.7704   -4.7121 H         1 <0>         0.1019
     60 H32         2.2207    2.0317   -6.7051 H         1 <0>         0.0549
     61 H33         2.2055    0.2949   -7.0947 H         1 <0>         0.0794
     62 H34         1.0588    0.9493   -5.9009 H         1 <0>         0.0693
     63 H35         5.6030    2.6668   -2.9011 H         1 <0>         0.0613
     64 H36         5.0128    2.3623   -4.5526 H         1 <0>         0.0552
     65 H37         4.0912    3.4226   -3.4595 H         1 <0>         0.0627
     66 H38         2.2429    0.5277    3.0406 H         1 <0>         0.0555
     67 H39         2.2827    2.2358    2.5416 H         1 <0>         0.0426
     68 H40         0.7483    1.3344    2.5082 H         1 <0>         0.0751
@<TRIPOS>BOND
     1    1    2 1
     2    1   34 1
     3    1   35 1
     4    1   36 1
     5    2    3 1
     6    2   37 1
     7    2   38 1
     8    3    4 1
     9    3    6 am
    10    4    5 1
    11    4   39 1
    12    4   40 1
    13    5   41 1
    14    5   42 1
    15    5   43 1
    16    6    7 2
    17    6    8 1
    18    8    9 1
    19    8   14 1
    20    8   10 1
    21   10   11 1
    22   10   44 1
    23   10   45 1
    24   11   12 1
    25   11   46 1
    26   11   47 1
    27   12   13 1
    28   12   19 1
    29   12   14 1
    30   14   15 1
    31   14   33 1
    32   15   16 1
    33   15   48 1
    34   15   49 1
    35   16   17 1
    36   16   50 1
    37   16   51 1
    38   17   18 1
    39   17   25 1
    40   17   19 1
    41   19   20 1
    42   19   21 1
    43   21   22 1
    44   21   52 1
    45   21   53 1
    46   22   23 1
    47   22   54 1
    48   22   55 1
    49   23   24 1
    50   23   30 1
    51   23   25 1
    52   25   26 1
    53   25   32 1
    54   26   27 1
    55   26   56 1
    56   26   57 1
    57   27   28 1
    58   27   58 1
    59   27   59 1
    60   28   29 2
    61   28   30 am
    62   30   31 1
    63   31   60 1
    64   31   61 1
    65   31   62 1
    66   32   63 1
    67   32   64 1
    68   32   65 1
    69   33   66 1
    70   33   67 1
    71   33   68 1
@<TRIPOS>MOLECULE
ZINC03796232
   65    68     0     0     0
SMALL
USER_CHARGES
10,13-dimethyl-17-(tert-butylcarbamoyl)-2,7,8,9,11,12,14,15,16,17-decahydro-1H-cyclopenta[a]phenanthrene-3-carboxylic acid
@<TRIPOS>ATOM
      1 C1          2.2633   -0.6643    1.6689 C.3       1 <0>        -0.1505
      2 C2          1.7000   -0.4742    0.2591 C.3       1 <0>        -0.0495
      3 C3          1.8910   -1.7447   -0.5492 C.3       1 <0>        -0.1022
      4 C4          3.3867   -2.0873   -0.4975 C.3       1 <0>        -0.1226
      5 C5          4.2674   -0.9510   -1.0103 C.3       1 <0>        -0.0644
      6 H1          4.1197   -0.8343   -2.0840 H         1 <0>         0.0691
      7 C6          3.9562    0.3805   -0.3020 C.3       1 <0>        -0.0739
      8 H2          4.2152    0.3203    0.7550 H         1 <0>         0.0858
      9 C7          2.4723    0.6560   -0.4710 C.3       1 <0>        -0.0784
     10 H3          2.2019    0.6790   -1.5267 H         1 <0>         0.0758
     11 C8          1.9432    1.9063    0.2403 C.3       1 <0>        -0.1144
     12 C9          0.4256    1.6091    0.3827 C.3       1 <0>        -0.1095
     13 C10         0.2760    0.0681    0.3373 C.3       1 <0>        -0.1022
     14 H4         -0.2920   -0.2303   -0.5439 H         1 <0>         0.0866
     15 C11        -0.4034   -0.4275    1.5878 C.2       1 <0>         0.5309
     16 O1         -0.2923    0.1921    2.6245 O.2       1 <0>        -0.5327
     17 N1         -1.1345   -1.5592    1.5541 N.am      1 <0>        -0.7268
     18 C12        -1.7950   -2.0410    2.7698 C.3       1 <0>         0.1687
     19 C13        -2.7779   -0.9808    3.2706 C.3       1 <0>        -0.1629
     20 C14        -2.5530   -3.3335    2.4603 C.3       1 <0>        -0.1559
     21 C15        -0.7439   -2.3119    3.8481 C.3       1 <0>        -0.1641
     22 C16         4.7511    1.4982   -0.9863 C.3       1 <0>        -0.0740
     23 C17         6.1883    1.1067   -1.1433 C.2       1 <0>        -0.1747
     24 C18         6.6292   -0.1355   -1.0445 C.2       1 <0>        -0.0558
     25 C19         5.7343   -1.3023   -0.7455 C.3       1 <0>        -0.0145
     26 C20         6.1175   -2.5265   -1.5635 C.3       1 <0>        -0.1030
     27 C21         7.1513   -2.2158   -2.6352 C.3       1 <0>        -0.0777
     28 C22         8.3354   -1.4860   -2.0499 C.2       1 <0>        -0.1199
     29 C23         8.0684   -0.4106   -1.2364 C.2       1 <0>        -0.1252
     30 C24         9.6659   -1.8960   -2.3184 C.2       1 <0>         0.4800
     31 O2         10.5999   -1.2872   -1.8318 O.co2     1 <0>        -0.6391
     32 C25         5.8737   -1.6500    0.7380 C.3       1 <0>        -0.1425
     33 H5          1.7094   -1.4530    2.1782 H         1 <0>         0.0485
     34 H6          3.3154   -0.9421    1.6054 H         1 <0>         0.0703
     35 H7          2.1663    0.2666    2.2275 H         1 <0>         0.0646
     36 H8          1.3020   -2.5532   -0.1163 H         1 <0>         0.0600
     37 H9          1.5902   -1.5765   -1.5833 H         1 <0>         0.0637
     38 H10         3.5676   -2.9758   -1.1026 H         1 <0>         0.0643
     39 H11         3.6546   -2.3035    0.5367 H         1 <0>         0.0730
     40 H12         2.1066    2.7951   -0.3693 H         1 <0>         0.0663
     41 H13         2.4079    2.0185    1.2199 H         1 <0>         0.0704
     42 H14        -0.1235    2.0627   -0.4424 H         1 <0>         0.0643
     43 H15         0.0568    1.9929    1.3339 H         1 <0>         0.0800
     44 H16        -1.2234   -2.0547    0.7250 H         1 <0>         0.3975
     45 H17        -3.5267   -0.7878    2.5024 H         1 <0>         0.0517
     46 H18        -3.2693   -1.3393    4.1751 H         1 <0>         0.0603
     47 H19        -2.2379   -0.0600    3.4910 H         1 <0>         0.0785
     48 H20        -1.8528   -4.0888    2.1036 H         1 <0>         0.0620
     49 H21        -3.0444   -3.6920    3.3648 H         1 <0>         0.0717
     50 H22        -3.3018   -3.1405    1.6921 H         1 <0>         0.0606
     51 H23        -0.2039   -1.3911    4.0686 H         1 <0>         0.0795
     52 H24        -1.2354   -2.6704    4.7526 H         1 <0>         0.0598
     53 H25        -0.0437   -3.0672    3.4914 H         1 <0>         0.0537
     54 H26         4.3227    1.6932   -1.9694 H         1 <0>         0.0669
     55 H27         4.6902    2.4035   -0.3823 H         1 <0>         0.0664
     56 H28         6.9072    1.8858   -1.3500 H         1 <0>         0.1024
     57 H29         6.5222   -3.2850   -0.8934 H         1 <0>         0.0614
     58 H30         5.2229   -2.9230   -2.0438 H         1 <0>         0.0636
     59 H31         7.4922   -3.1485   -3.0847 H         1 <0>         0.0828
     60 H32         6.6931   -1.5950   -3.4051 H         1 <0>         0.0590
     61 H33         8.8414    0.1940   -0.7853 H         1 <0>         0.1296
     62 H34         5.4772   -0.8334    1.3414 H         1 <0>         0.0547
     63 H35         5.3171   -2.5626    0.9511 H         1 <0>         0.0579
     64 H36         6.9260   -1.8017    0.9783 H         1 <0>         0.0576
     65 O3          9.8961   -2.9615   -3.1136 O.co2     1 <0>        -0.7636
@<TRIPOS>BOND
     1    1    2 1
     2    1   33 1
     3    1   34 1
     4    1   35 1
     5    2    9 1
     6    2   13 1
     7    2    3 1
     8    3    4 1
     9    3   36 1
    10    3   37 1
    11    4    5 1
    12    4   38 1
    13    4   39 1
    14    5    6 1
    15    5   25 1
    16    5    7 1
    17    7    8 1
    18    7    9 1
    19    7   22 1
    20    9   10 1
    21    9   11 1
    22   11   12 1
    23   11   40 1
    24   11   41 1
    25   12   13 1
    26   12   42 1
    27   12   43 1
    28   13   14 1
    29   13   15 1
    30   15   16 2
    31   15   17 am
    32   17   18 1
    33   17   44 1
    34   18   19 1
    35   18   20 1
    36   18   21 1
    37   19   45 1
    38   19   46 1
    39   19   47 1
    40   20   48 1
    41   20   49 1
    42   20   50 1
    43   21   51 1
    44   21   52 1
    45   21   53 1
    46   22   23 1
    47   22   54 1
    48   22   55 1
    49   23   24 2
    50   23   56 1
    51   24   29 1
    52   24   25 1
    53   25   26 1
    54   25   32 1
    55   26   27 1
    56   26   57 1
    57   26   58 1
    58   27   28 1
    59   27   59 1
    60   27   60 1
    61   28   29 2
    62   28   30 1
    63   29   61 1
    64   30   31 2
    65   30   65 1
    66   32   62 1
    67   32   63 1
    68   32   64 1
@<TRIPOS>MOLECULE
ZINC29345122
   65    68     0     0     0
SMALL
USER_CHARGES
(8R,9R,10R,13S,14S,17S)-17-(tert-butylcarbamoyl)-10,13-dimethyl-2,7,8,9,11,12,14,15,16,17-decahydro-1H-cyclopenta[a]phenanthrene-3-carboxylic acid
@<TRIPOS>ATOM
      1 C1         -3.5950    3.5714    1.2146 C.3       1 <0>        -0.1594
      2 C2         -2.9114    2.2073    1.0977 C.3       1 <0>        -0.0137
      3 C3         -1.6371    2.3085    0.3019 C.3       1 <0>        -0.0968
      4 C4         -1.8846    2.0459   -1.1915 C.3       1 <0>        -0.1111
      5 C5         -3.3241    2.3509   -1.5692 C.3       1 <0>        -0.0670
      6 H1         -3.5171    3.3799   -1.2316 H         1 <0>         0.0757
      7 C6         -4.2711    1.3729   -0.8718 C.3       1 <0>        -0.0753
      8 H2         -4.2227    0.3604   -1.2991 H         1 <0>         0.0616
      9 C7         -3.8531    1.1224    0.5375 C.3       1 <0>        -0.0872
     10 H3         -3.4106    0.1303    0.3641 H         1 <0>         0.0707
     11 C8         -4.9500    1.0722    1.6112 C.3       1 <0>        -0.1152
     12 C9         -4.1494    1.2100    2.9363 C.3       1 <0>        -0.1139
     13 C10        -2.7271    1.6827    2.5405 C.3       1 <0>        -0.1064
     14 H4         -1.9589    0.9019    2.6419 H         1 <0>         0.0994
     15 C11        -2.2707    2.7999    3.4357 C.2       1 <0>         0.5216
     16 O1         -1.6376    3.7261    2.9750 O.2       1 <0>        -0.5310
     17 N1         -2.5649    2.7727    4.7507 N.am      1 <0>        -0.7384
     18 C12        -2.1200    3.8620    5.6235 C.3       1 <0>         0.1723
     19 C13        -2.7205    5.1826    5.1375 C.3       1 <0>        -0.1649
     20 C14        -2.5817    3.5884    7.0563 C.3       1 <0>        -0.1559
     21 C15        -0.5931    3.9525    5.5882 C.3       1 <0>        -0.1652
     22 C16        -5.6961    1.9016   -1.0535 C.3       1 <0>        -0.0746
     23 C17        -5.9635    1.7930   -2.5413 C.2       1 <0>        -0.1756
     24 C18        -4.9873    1.9805   -3.4212 C.2       1 <0>        -0.0561
     25 C19        -3.5789    2.3664   -3.0602 C.3       1 <0>        -0.0119
     26 C20        -2.6063    1.4929   -3.8406 C.3       1 <0>        -0.1012
     27 C21        -2.8179    1.6677   -5.3424 C.3       1 <0>        -0.0714
     28 C22        -4.2641    1.6615   -5.7280 C.2       1 <0>        -0.1220
     29 C23        -5.2775    1.7925   -4.8527 C.2       1 <0>        -0.1228
     30 C24        -4.5866    1.5065   -7.1007 C.2       1 <0>         0.4725
     31 O2         -5.7503    1.4963   -7.4546 O.co2     1 <0>        -0.6410
     32 O3         -3.6024    1.3704   -8.0137 O.co2     1 <0>        -0.7656
     33 C25        -3.3828    3.8186   -3.5141 C.3       1 <0>        -0.1456
     34 H5         -2.8818    4.3056    1.6176 H         1 <0>         0.0834
     35 H6         -4.4598    3.4915    1.8897 H         1 <0>         0.0474
     36 H7         -3.9347    3.8976    0.2205 H         1 <0>         0.0606
     37 H8         -1.2148    3.3181    0.4128 H         1 <0>         0.0699
     38 H9         -0.9143    1.5661    0.6711 H         1 <0>         0.0554
     39 H10        -1.2204    2.6856   -1.7912 H         1 <0>         0.0639
     40 H11        -1.6780    0.9893   -1.4172 H         1 <0>         0.0591
     41 H12        -5.6545    1.9024    1.4548 H         1 <0>         0.0738
     42 H13        -5.4889    0.1158    1.5405 H         1 <0>         0.0655
     43 H14        -4.6425    1.9466    3.5877 H         1 <0>         0.0686
     44 H15        -4.1134    0.2359    3.4460 H         1 <0>         0.0689
     45 H16        -3.1390    1.9326    5.1686 H         1 <0>         0.4153
     46 H17        -2.3864    6.0005    5.7929 H         1 <0>         0.0585
     47 H18        -3.8183    5.1175    5.1628 H         1 <0>         0.0521
     48 H19        -2.3885    5.3792    4.1074 H         1 <0>         0.0801
     49 H20        -2.2477    4.4063    7.7116 H         1 <0>         0.0704
     50 H21        -2.1499    2.6389    7.4057 H         1 <0>         0.0605
     51 H22        -3.6795    3.5233    7.0816 H         1 <0>         0.0612
     52 H23        -0.2590    4.7704    6.2435 H         1 <0>         0.0589
     53 H24        -0.2612    4.1491    4.5581 H         1 <0>         0.0798
     54 H25        -0.1614    3.0030    5.9376 H         1 <0>         0.0511
     55 H26        -6.3936    1.2845   -0.4681 H         1 <0>         0.0670
     56 H27        -5.7477    2.9438   -0.7053 H         1 <0>         0.0692
     57 H28        -6.9797    1.5560   -2.8894 H         1 <0>         0.1094
     58 H29        -1.5742    1.7786   -3.5894 H         1 <0>         0.0661
     59 H30        -2.7689    0.4374   -3.5772 H         1 <0>         0.0570
     60 H31        -2.3882    2.6279   -5.6639 H         1 <0>         0.0704
     61 H32        -2.3228    0.8460   -5.8806 H         1 <0>         0.0789
     62 H33        -6.3183    1.7590   -5.2072 H         1 <0>         0.1261
     63 H34        -3.5565    3.8906   -4.5979 H         1 <0>         0.0644
     64 H35        -2.3556    4.1387   -3.2853 H         1 <0>         0.0532
     65 H36        -4.0957    4.4677   -2.9845 H         1 <0>         0.0495
@<TRIPOS>BOND
     1    1    2 1
     2    1   34 1
     3    1   35 1
     4    1   36 1
     5    2    9 1
     6    2   13 1
     7    2    3 1
     8    3    4 1
     9    3   37 1
    10    3   38 1
    11    4    5 1
    12    4   39 1
    13    4   40 1
    14    5    6 1
    15    5   25 1
    16    5    7 1
    17    7    8 1
    18    7    9 1
    19    7   22 1
    20    9   10 1
    21    9   11 1
    22   11   12 1
    23   11   41 1
    24   11   42 1
    25   12   13 1
    26   12   43 1
    27   12   44 1
    28   13   14 1
    29   13   15 1
    30   15   16 2
    31   15   17 am
    32   17   18 1
    33   17   45 1
    34   18   19 1
    35   18   20 1
    36   18   21 1
    37   19   46 1
    38   19   47 1
    39   19   48 1
    40   20   49 1
    41   20   50 1
    42   20   51 1
    43   21   52 1
    44   21   53 1
    45   21   54 1
    46   22   23 1
    47   22   55 1
    48   22   56 1
    49   23   24 2
    50   23   57 1
    51   24   29 1
    52   24   25 1
    53   25   26 1
    54   25   33 1
    55   26   27 1
    56   26   58 1
    57   26   59 1
    58   27   28 1
    59   27   60 1
    60   27   61 1
    61   28   29 2
    62   28   30 1
    63   29   62 1
    64   30   31 2
    65   30   32 1
    66   33   63 1
    67   33   64 1
    68   33   65 1
@<TRIPOS>MOLECULE
ZINC34307313
   65    68     0     0     0
SMALL
USER_CHARGES

@<TRIPOS>ATOM
      1 C1          1.6884    1.6783   -0.2628 C.3       1 <0>        -0.1624
      2 C2          0.9544    0.3867    0.0862 C.3       1 <0>        -0.0290
      3 C3         -0.3536    0.6818    0.7795 C.3       1 <0>        -0.1036
      4 C4         -0.0624    1.2903    2.1657 C.3       1 <0>        -0.1054
      5 C5          0.7659    0.3472    3.0201 C.3       1 <0>        -0.0617
      6 H1          0.1760   -0.5836    3.1133 H         1 <0>         0.0574
      7 C6          2.0735   -0.0559    2.3269 C.3       1 <0>        -0.0607
      8 H2          2.5096   -0.8864    2.9236 H         1 <0>         0.0655
      9 C7          1.7858   -0.5752    0.9578 C.3       1 <0>        -0.0747
     10 H3          1.1957   -1.5169    1.0732 H         1 <0>         0.0638
     11 C8          2.9570   -0.9079    0.0265 C.3       1 <0>        -0.1136
     12 C9          2.2468   -1.0977   -1.3450 C.3       1 <0>        -0.1232
     13 C10         0.8484   -0.4403   -1.2105 C.3       1 <0>        -0.1118
     14 H4          0.0745   -1.1922   -1.1072 H         1 <0>         0.1025
     15 C11         0.5783    0.4694   -2.3771 C.2       1 <0>         0.5308
     16 O1         -0.1418    1.4354   -2.2388 O.2       1 <0>        -0.5276
     17 N1          1.1364    0.2112   -3.5764 N.am      1 <0>        -0.7279
     18 C12         0.8733    1.0974   -4.7129 C.3       1 <0>         0.1678
     19 C13         1.3528    2.5114   -4.3787 C.3       1 <0>        -0.1636
     20 C14         1.6211    0.5831   -5.9446 C.3       1 <0>        -0.1558
     21 C15        -0.6289    1.1234   -5.0022 C.3       1 <0>        -0.1635
     22 C16         3.0551    1.1105    2.3928 C.3       1 <0>        -0.0753
     23 C17         3.3893    1.2938    3.8584 C.2       1 <0>        -0.1829
     24 C18         2.4315    1.1436    4.7675 C.2       1 <0>        -0.0584
     25 C19         1.0026    0.8267    4.4323 C.3       1 <0>        -0.0104
     26 C20         0.4886   -0.2072    5.4397 C.3       1 <0>        -0.1017
     27 C21         0.5790    0.3295    6.8634 C.3       1 <0>        -0.0694
     28 C22         1.9071    0.9611    7.1470 C.2       1 <0>        -0.1432
     29 C23         2.7781    1.3250    6.1856 C.2       1 <0>        -0.1213
     30 C24         2.2644    1.1885    8.4954 C.2       1 <0>         0.5035
     31 O2          3.3431    1.7033    8.7649 O.co2     1 <0>        -0.6980
     32 O3          1.4955    0.8708    9.3949 O.co2     1 <0>        -0.6996
     33 C25         0.2087    2.1123    4.6613 C.3       1 <0>        -0.1419
     34 H5          2.6493    1.4385   -0.7179 H         1 <0>         0.0487
     35 H6          1.0889    2.2588   -0.9641 H         1 <0>         0.0778
     36 H7          1.8511    2.2603    0.6444 H         1 <0>         0.0649
     37 H8         -0.9383    1.3941    0.1922 H         1 <0>         0.0722
     38 H9         -0.9292   -0.2382    0.9036 H         1 <0>         0.0553
     39 H10         0.4435    2.2412    2.0393 H         1 <0>         0.0663
     40 H11        -1.0409    1.4552    2.6316 H         1 <0>         0.0613
     41 H12         3.6855   -0.1051   -0.0130 H         1 <0>         0.0734
     42 H13         3.4343   -1.8410    0.3355 H         1 <0>         0.0649
     43 H14         2.8173   -0.6083   -2.1324 H         1 <0>         0.0673
     44 H15         2.1387   -2.1599   -1.5630 H         1 <0>         0.0692
     45 H16         1.7124   -0.5614   -3.6871 H         1 <0>         0.3978
     46 H17         2.4230    2.4929   -4.1726 H         1 <0>         0.0531
     47 H18         1.1570    3.1708   -5.2243 H         1 <0>         0.0599
     48 H19         0.8201    2.8779   -3.5012 H         1 <0>         0.0800
     49 H20         1.2794   -0.4243   -6.1826 H         1 <0>         0.0604
     50 H21         1.4253    1.2424   -6.7902 H         1 <0>         0.0720
     51 H22         2.6912    0.5645   -5.7385 H         1 <0>         0.0612
     52 H23        -1.1616    1.4899   -4.1247 H         1 <0>         0.0794
     53 H24        -0.8247    1.7828   -5.8478 H         1 <0>         0.0603
     54 H25        -0.9705    0.1161   -5.2403 H         1 <0>         0.0517
     55 H26         3.9610    0.8869    1.8358 H         1 <0>         0.0649
     56 H27         2.6000    2.0342    2.0409 H         1 <0>         0.0766
     57 H28         4.3916    1.5437    4.1552 H         1 <0>         0.1092
     58 H29        -0.5507   -0.4493    5.2044 H         1 <0>         0.0597
     59 H30         1.0889   -1.1166    5.3526 H         1 <0>         0.0557
     60 H31        -0.2179    1.0429    7.0550 H         1 <0>         0.0704
     61 H32         0.4480   -0.5102    7.5584 H         1 <0>         0.0715
     62 H33         3.7334    1.7560    6.4569 H         1 <0>         0.1234
     63 H34        -0.8531    1.9148    4.5135 H         1 <0>         0.0533
     64 H35         0.3744    2.4652    5.6792 H         1 <0>         0.0621
     65 H36         0.5385    2.8738    3.9546 H         1 <0>         0.0518
@<TRIPOS>BOND
     1    1    2 1
     2    1   34 1
     3    1   35 1
     4    1   36 1
     5    2    9 1
     6    2   13 1
     7    2    3 1
     8    3    4 1
     9    3   37 1
    10    3   38 1
    11    4    5 1
    12    4   39 1
    13    4   40 1
    14    5    6 1
    15    5   25 1
    16    5    7 1
    17    7    8 1
    18    7    9 1
    19    7   22 1
    20    9   10 1
    21    9   11 1
    22   11   12 1
    23   11   41 1
    24   11   42 1
    25   12   13 1
    26   12   43 1
    27   12   44 1
    28   13   14 1
    29   13   15 1
    30   15   16 2
    31   15   17 am
    32   17   18 1
    33   17   45 1
    34   18   19 1
    35   18   20 1
    36   18   21 1
    37   19   46 1
    38   19   47 1
    39   19   48 1
    40   20   49 1
    41   20   50 1
    42   20   51 1
    43   21   52 1
    44   21   53 1
    45   21   54 1
    46   22   23 1
    47   22   55 1
    48   22   56 1
    49   23   24 2
    50   23   57 1
    51   24   29 1
    52   24   25 1
    53   25   26 1
    54   25   33 1
    55   26   27 1
    56   26   58 1
    57   26   59 1
    58   27   28 1
    59   27   60 1
    60   27   61 1
    61   28   29 2
    62   28   30 1
    63   29   62 1
    64   30   31 2
    65   30   32 1
    66   33   63 1
    67   33   64 1
    68   33   65 1
@<TRIPOS>MOLECULE
ZINC04727177
   60    63     0     0     0
SMALL
USER_CHARGES
(17-acetyl-10,13-dimethyl-6-methylene-3-oxo-1,2,7,8,9,11,12,14,15,16-decahydrocyclopenta[a]phenanthren-17-yl) acetate
@<TRIPOS>ATOM
      1 C1         -0.6439    1.9322   -3.7229 C.3       1 <0>        -0.1969
      2 C2         -0.0209    1.9224   -2.3507 C.2       1 <0>         0.3566
      3 O1          1.1286    2.2636   -2.2070 O.2       1 <0>        -0.4311
      4 C3         -0.8300    1.4879   -1.1612 C.3       1 <0>         0.0758
      5 C4          0.0936    0.9761   -0.0281 C.3       1 <0>        -0.1338
      6 C5         -0.4202    1.6282    1.2862 C.3       1 <0>        -0.1186
      7 C6         -1.7981    2.1701    0.8854 C.3       1 <0>        -0.0738
      8 H1         -2.4834    1.2978    0.8076 H         1 <0>         0.0808
      9 C7         -1.5389    2.7094   -0.5316 C.3       1 <0>        -0.0250
     10 C8         -2.8190    3.1161   -1.2149 C.3       1 <0>        -0.1109
     11 C9         -3.8399    3.6402   -0.1874 C.3       1 <0>        -0.1083
     12 C10        -3.1082    4.2813    0.9872 C.3       1 <0>        -0.0694
     13 H2         -2.3440    4.9650    0.6004 H         1 <0>         0.0820
     14 C11        -2.4419    3.1686    1.8094 C.3       1 <0>        -0.0685
     15 H3         -3.2092    2.5957    2.3599 H         1 <0>         0.0792
     16 C12        -1.4891    3.7501    2.8419 C.3       1 <0>        -0.0745
     17 C13        -2.1717    4.8410    3.6414 C.2       1 <0>        -0.1111
     18 C14        -1.8894    4.9973    4.9513 C.2       1 <0>        -0.1556
     19 C15        -3.1438    5.7108    2.9683 C.2       1 <0>         0.0358
     20 C16        -3.2429    7.0033    3.3409 C.2       1 <0>        -0.2502
     21 C17        -3.9973    7.9175    2.5865 C.2       1 <0>         0.3903
     22 O2         -4.3537    8.9790    3.0530 O.2       1 <0>        -0.4612
     23 C18        -4.3485    7.5316    1.1698 C.3       1 <0>        -0.1622
     24 C19        -4.8856    6.1063    1.1654 C.3       1 <0>        -0.1090
     25 C20        -4.0019    5.1171    1.8838 C.3       1 <0>        -0.0267
     26 C21        -4.9918    4.1810    2.5919 C.3       1 <0>        -0.1512
     27 C22        -0.5180    3.8512   -0.5523 C.3       1 <0>        -0.1591
     28 O3         -1.7987    0.4778   -1.5266 O.3       1 <0>        -0.3303
     29 C23        -1.3216   -0.6649   -2.0446 C.2       1 <0>         0.4512
     30 O4         -0.1290   -0.8478   -2.1083 O.2       1 <0>        -0.5014
     31 C24        -2.2735   -1.7198   -2.5467 C.3       1 <0>        -0.1498
     32 H4         -1.4788    2.4823   -3.7060 H         1 <0>         0.0864
     33 H5          0.0588    2.3601   -4.4379 H         1 <0>         0.0884
     34 H6         -0.8871    0.9117   -4.0188 H         1 <0>         0.0874
     35 H7          0.0270   -0.1090    0.0458 H         1 <0>         0.0788
     36 H8          1.1232    1.2768   -0.2170 H         1 <0>         0.0932
     37 H9         -0.5248    0.8684    2.0659 H         1 <0>         0.0711
     38 H10         0.2462    2.4183    1.6198 H         1 <0>         0.0781
     39 H11        -2.6144    3.9042   -1.9506 H         1 <0>         0.0655
     40 H12        -3.2537    2.2628   -1.7473 H         1 <0>         0.0806
     41 H13        -4.4912    4.3655   -0.6720 H         1 <0>         0.0729
     42 H14        -4.4448    2.8014    0.1692 H         1 <0>         0.0688
     43 H15        -1.1637    2.9562    3.5225 H         1 <0>         0.0772
     44 H16        -0.6074    4.1619    2.3463 H         1 <0>         0.0791
     45 H17        -1.1758    4.3442    5.4315 H         1 <0>         0.1113
     46 H18        -2.3770    5.7755    5.5197 H         1 <0>         0.1058
     47 H19        -2.7320    7.3460    4.2294 H         1 <0>         0.1347
     48 H20        -3.5306    7.5858    0.5971 H         1 <0>         0.0879
     49 H21        -5.1078    8.2146    0.7848 H         1 <0>         0.0935
     50 H22        -5.0364    5.7844    0.1373 H         1 <0>         0.0881
     51 H23        -5.8628    6.1065    1.6642 H         1 <0>         0.0731
     52 H24        -4.4410    3.4539    3.1885 H         1 <0>         0.0646
     53 H25        -5.6432    4.7654    3.2417 H         1 <0>         0.0575
     54 H26        -5.5939    3.6592    1.8481 H         1 <0>         0.0684
     55 H27        -0.3155    4.1389   -1.5840 H         1 <0>         0.0580
     56 H28        -0.9186    4.7067   -0.0085 H         1 <0>         0.0774
     57 H29         0.4066    3.5205   -0.0791 H         1 <0>         0.0712
     58 H30        -2.8874   -1.3045   -3.3459 H         1 <0>         0.1021
     59 H31        -1.7065   -2.5691   -2.9279 H         1 <0>         0.1035
     60 H32        -2.9152   -2.0489   -1.7293 H         1 <0>         0.1022
@<TRIPOS>BOND
     1    1    2 1
     2    1   32 1
     3    1   33 1
     4    1   34 1
     5    2    3 2
     6    2    4 1
     7    4    9 1
     8    4    5 1
     9    4   28 1
    10    5    6 1
    11    5   35 1
    12    5   36 1
    13    6    7 1
    14    6   37 1
    15    6   38 1
    16    7    8 1
    17    7   14 1
    18    7    9 1
    19    9   10 1
    20    9   27 1
    21   10   11 1
    22   10   39 1
    23   10   40 1
    24   11   12 1
    25   11   41 1
    26   11   42 1
    27   12   13 1
    28   12   25 1
    29   12   14 1
    30   14   15 1
    31   14   16 1
    32   16   17 1
    33   16   43 1
    34   16   44 1
    35   17   18 2
    36   17   19 1
    37   18   45 1
    38   18   46 1
    39   19   25 1
    40   19   20 2
    41   20   21 1
    42   20   47 1
    43   21   22 2
    44   21   23 1
    45   23   24 1
    46   23   48 1
    47   23   49 1
    48   24   25 1
    49   24   50 1
    50   24   51 1
    51   25   26 1
    52   26   52 1
    53   26   53 1
    54   26   54 1
    55   27   55 1
    56   27   56 1
    57   27   57 1
    58   28   29 1
    59   29   30 2
    60   29   31 1
    61   31   58 1
    62   31   59 1
    63   31   60 1
@<TRIPOS>MOLECULE
ZINC33696845
   65    68     0     0     0
SMALL
USER_CHARGES
(1S,3aS,3bR,5aR,9aR,9bR,11aR)-N-tert-butyl-9a,11a-dimethyl-7-oxo-1,2,3,3a,3b,4,5,5a,6,8,9,9b,10,11-tetradecahydroindeno[5,4-f]quinoline-1-carboxamide
@<TRIPOS>ATOM
      1 C1         -2.4247   -0.6168    1.9487 C.3       1 <0>        -0.1408
      2 C2         -2.2168    0.8213    1.4695 C.3       1 <0>        -0.0311
      3 C3         -0.7295    1.1980    1.4486 C.3       1 <0>        -0.1175
      4 C4         -0.0063    0.4774    0.3134 C.3       1 <0>        -0.1157
      5 C5         -0.6166    0.9261   -1.0181 C.3       1 <0>        -0.0655
      6 H1         -0.5483    2.0196   -1.1162 H         1 <0>         0.0817
      7 C6         -2.0774    0.4760   -1.0522 C.3       1 <0>        -0.0815
      8 H2         -2.1116   -0.6164   -0.9273 H         1 <0>         0.0708
      9 C7         -2.8644    1.0614    0.0941 C.3       1 <0>        -0.0769
     10 H3         -3.8290    0.5439   -0.0140 H         1 <0>         0.0730
     11 C8         -2.9796    2.5948    0.0129 C.3       1 <0>        -0.1139
     12 C9         -3.3871    3.0023    1.4475 C.3       1 <0>        -0.1108
     13 C10        -2.9269    1.8626    2.3754 C.3       1 <0>        -0.1043
     14 H4         -3.7694    1.4267    2.9323 H         1 <0>         0.0869
     15 C11        -1.9652    2.3910    3.4083 C.2       1 <0>         0.5257
     16 O1         -1.3624    3.4234    3.2036 O.2       1 <0>        -0.5377
     17 N1         -1.7748    1.7165    4.5594 N.am      1 <0>        -0.7355
     18 C12        -0.8399    2.2302    5.5635 C.3       1 <0>         0.1733
     19 C13        -1.2932    3.6186    6.0193 C.3       1 <0>        -0.1659
     20 C14        -0.8107    1.2833    6.7649 C.3       1 <0>        -0.1570
     21 C15         0.5606    2.3253    4.9549 C.3       1 <0>        -0.1648
     22 C16        -2.7070    0.8533   -2.3941 C.3       1 <0>        -0.1090
     23 C17        -1.9556    0.1469   -3.5281 C.3       1 <0>        -0.1307
     24 C18        -0.8051   -0.6601   -2.9305 C.3       1 <0>         0.1558
     25 H5         -1.2040   -1.4389   -2.2639 H         1 <0>         0.0704
     26 C19         0.1374    0.2791   -2.1768 C.3       1 <0>        -0.0623
     27 C20         1.3291   -0.5322   -1.6650 C.3       1 <0>        -0.1161
     28 C21         2.1466   -0.9979   -2.8737 C.3       1 <0>        -0.1403
     29 C22         1.2450   -1.5800   -3.9230 C.2       1 <0>         0.5180
     30 O2          1.7459   -2.2612   -4.7924 O.2       1 <0>        -0.5642
     31 N2         -0.0775   -1.3919   -3.9548 N.am      1 <0>        -0.7300
     32 C23         0.6388    1.3674   -3.1282 C.3       1 <0>        -0.1493
     33 H6         -1.9489   -0.7481    2.9318 H         1 <0>         0.0559
     34 H7         -1.9727   -1.3128    1.2267 H         1 <0>         0.0625
     35 H8         -3.5019   -0.8233    2.0321 H         1 <0>         0.0592
     36 H9         -0.6282    2.2835    1.3022 H         1 <0>         0.0786
     37 H10        -0.2653    0.9120    2.4040 H         1 <0>         0.0612
     38 H11         1.0634    0.7326    0.3398 H         1 <0>         0.0679
     39 H12        -0.1270   -0.6094    0.4332 H         1 <0>         0.0643
     40 H13        -2.0095    3.0202   -0.2836 H         1 <0>         0.0714
     41 H14        -3.7421    2.8663   -0.7320 H         1 <0>         0.0661
     42 H15        -2.8938    3.9487    1.7139 H         1 <0>         0.0846
     43 H16        -4.4784    3.1314    1.4960 H         1 <0>         0.0660
     44 H17        -2.3215    0.7802    4.7450 H         1 <0>         0.4154
     45 H18        -0.5912    4.0043    6.7732 H         1 <0>         0.0609
     46 H19        -2.3001    3.5503    6.4568 H         1 <0>         0.0522
     47 H20        -1.3141    4.2994    5.1555 H         1 <0>         0.0786
     48 H21        -0.1087    1.6691    7.5188 H         1 <0>         0.0722
     49 H22        -0.4848    0.2851    6.4372 H         1 <0>         0.0615
     50 H23        -1.8176    1.2150    7.2024 H         1 <0>         0.0615
     51 H24         1.2626    2.7110    5.7088 H         1 <0>         0.0603
     52 H25         0.5396    3.0061    4.0912 H         1 <0>         0.0792
     53 H26         0.8865    1.3271    4.6271 H         1 <0>         0.0523
     54 H27        -3.7622    0.5426   -2.4043 H         1 <0>         0.0668
     55 H28        -2.6441    1.9424   -2.5354 H         1 <0>         0.0693
     56 H29        -2.6441   -0.5252   -4.0612 H         1 <0>         0.0685
     57 H30        -1.5596    0.8969   -4.2286 H         1 <0>         0.0748
     58 H31         1.9484    0.0989   -1.0106 H         1 <0>         0.0840
     59 H32         0.9645   -1.4014   -1.0980 H         1 <0>         0.0720
     60 H33         2.6881   -0.1416   -3.3020 H         1 <0>         0.1011
     61 H34         2.8674   -1.7654   -2.5552 H         1 <0>         0.0984
     62 H35        -0.6173   -1.8235   -4.8106 H         1 <0>         0.4183
     63 H36         1.1824    0.9021   -3.9637 H         1 <0>         0.0560
     64 H37         1.3125    2.0469   -2.5855 H         1 <0>         0.0613
     65 H38        -0.2180    1.9356   -3.5194 H         1 <0>         0.0630
@<TRIPOS>BOND
     1    1    2 1
     2    1   33 1
     3    1   34 1
     4    1   35 1
     5    2    9 1
     6    2   13 1
     7    2    3 1
     8    3    4 1
     9    3   36 1
    10    3   37 1
    11    4    5 1
    12    4   38 1
    13    4   39 1
    14    5    6 1
    15    5   26 1
    16    5    7 1
    17    7    8 1
    18    7    9 1
    19    7   22 1
    20    9   10 1
    21    9   11 1
    22   11   12 1
    23   11   40 1
    24   11   41 1
    25   12   13 1
    26   12   42 1
    27   12   43 1
    28   13   14 1
    29   13   15 1
    30   15   16 2
    31   15   17 am
    32   17   18 1
    33   17   44 1
    34   18   19 1
    35   18   20 1
    36   18   21 1
    37   19   45 1
    38   19   46 1
    39   19   47 1
    40   20   48 1
    41   20   49 1
    42   20   50 1
    43   21   51 1
    44   21   52 1
    45   21   53 1
    46   22   23 1
    47   22   54 1
    48   22   55 1
    49   23   24 1
    50   23   56 1
    51   23   57 1
    52   24   25 1
    53   24   31 1
    54   24   26 1
    55   26   27 1
    56   26   32 1
    57   27   28 1
    58   27   58 1
    59   27   59 1
    60   28   29 1
    61   28   60 1
    62   28   61 1
    63   29   30 2
    64   29   31 am
    65   31   62 1
    66   32   63 1
    67   32   64 1
    68   32   65 1
@<TRIPOS>MOLECULE
ZINC33696848
   65    68     0     0     0
SMALL
USER_CHARGES
(1S,3aS,3bR,5aR,9aR,9bS,11aR)-N-tert-butyl-9a,11a-dimethyl-7-oxo-1,2,3,3a,3b,4,5,5a,6,8,9,9b,10,11-tetradecahydroindeno[5,4-f]quinoline-1-carboxamide
@<TRIPOS>ATOM
      1 C1         -5.3493    5.4812   -2.2971 C.3       1 <0>        -0.1443
      2 C2         -4.2176    4.5847   -2.8193 C.3       1 <0>        -0.0230
      3 C3         -2.8470    5.1946   -2.5535 C.3       1 <0>        -0.1102
      4 C4         -2.4500    5.1245   -1.0900 C.3       1 <0>        -0.1080
      5 C5         -2.4962    3.7205   -0.5132 C.3       1 <0>        -0.0593
      6 H1         -2.6062    3.8140    0.5773 H         1 <0>         0.0532
      7 C6         -3.7439    2.9681   -0.8809 C.3       1 <0>        -0.0691
      8 H2         -4.4534    3.5242   -0.2505 H         1 <0>         0.0535
      9 C7         -4.3171    3.1625   -2.2533 C.3       1 <0>        -0.0685
     10 H3         -5.3669    2.9308   -2.0204 H         1 <0>         0.0601
     11 C8         -3.8049    2.1962   -3.3226 C.3       1 <0>        -0.1285
     12 C9         -3.5719    3.0445   -4.5927 C.3       1 <0>        -0.1038
     13 C10        -4.3513    4.3527   -4.3491 C.3       1 <0>        -0.1043
     14 H4         -5.3963    4.3159   -4.6906 H         1 <0>         0.0873
     15 C11        -3.7709    5.4815   -5.1472 C.2       1 <0>         0.5226
     16 O1         -2.6271    5.4174   -5.5453 O.2       1 <0>        -0.5368
     17 N1         -4.5203    6.5675   -5.4221 N.am      1 <0>        -0.7358
     18 C12        -3.9533    7.6704   -6.2019 C.3       1 <0>         0.1732
     19 C13        -3.5287    7.1561   -7.5789 C.3       1 <0>        -0.1659
     20 C14        -5.0044    8.7695   -6.3698 C.3       1 <0>        -0.1570
     21 C15        -2.7345    8.2377   -5.4714 C.3       1 <0>        -0.1648
     22 C16        -3.7571    1.5030   -0.4638 C.3       1 <0>        -0.1011
     23 C17        -2.4228    0.8025   -0.6937 C.3       1 <0>        -0.1317
     24 C18        -1.3100    1.5934   -0.0209 C.3       1 <0>         0.1531
     25 H5         -1.5354    1.6801    1.0523 H         1 <0>         0.0631
     26 C19        -1.1838    2.9746   -0.6682 C.3       1 <0>        -0.0522
     27 C20        -0.0702    3.7222    0.0859 C.3       1 <0>        -0.1206
     28 C21         1.2686    3.0242   -0.1421 C.3       1 <0>        -0.1377
     29 C22         1.1371    1.5326   -0.0706 C.2       1 <0>         0.5203
     30 O2          2.1498    0.8684   -0.0218 O.2       1 <0>        -0.5627
     31 N2         -0.0369    0.8929   -0.0649 N.am      1 <0>        -0.7288
     32 C23        -0.7683    2.8344   -2.1285 C.3       1 <0>        -0.1582
     33 H6         -5.2446    6.4897   -2.7236 H         1 <0>         0.0580
     34 H7         -5.2943    5.5395   -1.2000 H         1 <0>         0.0616
     35 H8         -6.3198    5.0567   -2.5935 H         1 <0>         0.0592
     36 H9         -2.0861    4.6543   -3.1358 H         1 <0>         0.0826
     37 H10        -2.8529    6.2535   -2.8512 H         1 <0>         0.0587
     38 H11        -1.4209    5.4943   -0.9712 H         1 <0>         0.0696
     39 H12        -3.1342    5.7466   -0.4943 H         1 <0>         0.0590
     40 H13        -2.8686    1.7320   -2.9791 H         1 <0>         0.0832
     41 H14        -4.5578    1.4143   -3.5012 H         1 <0>         0.0641
     42 H15        -2.4949    3.2311   -4.7165 H         1 <0>         0.0847
     43 H16        -3.9534    2.5026   -5.4707 H         1 <0>         0.0648
     44 H17        -5.5577    6.6257   -5.0609 H         1 <0>         0.4152
     45 H18        -3.1030    7.9843   -8.1644 H         1 <0>         0.0609
     46 H19        -4.4049    6.7482   -8.1041 H         1 <0>         0.0520
     47 H20        -2.7730    6.3660   -7.4581 H         1 <0>         0.0788
     48 H21        -4.5786    9.5976   -6.9554 H         1 <0>         0.0722
     49 H22        -5.3095    9.1393   -5.3798 H         1 <0>         0.0615
     50 H23        -5.8807    8.3617   -6.8950 H         1 <0>         0.0615
     51 H24        -2.3087    9.0659   -6.0570 H         1 <0>         0.0604
     52 H25        -1.9788    7.4475   -5.3507 H         1 <0>         0.0791
     53 H26        -3.0397    8.6075   -4.4814 H         1 <0>         0.0521
     54 H27        -3.9912    1.4291    0.6085 H         1 <0>         0.0639
     55 H28        -4.5204    0.9635   -1.0438 H         1 <0>         0.0728
     56 H29        -2.4620   -0.2103   -0.2663 H         1 <0>         0.0710
     57 H30        -2.2242    0.7373   -1.7736 H         1 <0>         0.0780
     58 H31        -0.0082    4.7566   -0.2830 H         1 <0>         0.0807
     59 H32        -0.2974    3.7298    1.1621 H         1 <0>         0.0681
     60 H33         1.6558    3.2897   -1.1369 H         1 <0>         0.1009
     61 H34         1.9854    3.3453    0.6280 H         1 <0>         0.0987
     62 H35        -0.0148   -0.2065   -0.0952 H         1 <0>         0.4187
     63 H36         0.1851    2.2889   -2.1877 H         1 <0>         0.0521
     64 H37        -0.6474    3.8334   -2.5728 H         1 <0>         0.0666
     65 H38        -1.5429    2.2798   -2.6785 H         1 <0>         0.0749
@<TRIPOS>BOND
     1    1    2 1
     2    1   33 1
     3    1   34 1
     4    1   35 1
     5    2    9 1
     6    2   13 1
     7    2    3 1
     8    3    4 1
     9    3   36 1
    10    3   37 1
    11    4    5 1
    12    4   38 1
    13    4   39 1
    14    5    6 1
    15    5   26 1
    16    5    7 1
    17    7    8 1
    18    7    9 1
    19    7   22 1
    20    9   10 1
    21    9   11 1
    22   11   12 1
    23   11   40 1
    24   11   41 1
    25   12   13 1
    26   12   42 1
    27   12   43 1
    28   13   14 1
    29   13   15 1
    30   15   16 2
    31   15   17 am
    32   17   18 1
    33   17   44 1
    34   18   19 1
    35   18   20 1
    36   18   21 1
    37   19   45 1
    38   19   46 1
    39   19   47 1
    40   20   48 1
    41   20   49 1
    42   20   50 1
    43   21   51 1
    44   21   52 1
    45   21   53 1
    46   22   23 1
    47   22   54 1
    48   22   55 1
    49   23   24 1
    50   23   56 1
    51   23   57 1
    52   24   25 1
    53   24   31 1
    54   24   26 1
    55   26   27 1
    56   26   32 1
    57   27   28 1
    58   27   58 1
    59   27   59 1
    60   28   29 1
    61   28   60 1
    62   28   61 1
    63   29   30 2
    64   29   31 am
    65   31   62 1
    66   32   63 1
    67   32   64 1
    68   32   65 1
@<TRIPOS>MOLECULE
ZINC04533105
   54    57     0     0     0
SMALL
USER_CHARGES
methyl 10,13-dimethyl-3-oxo-1,2,6,7,8,9,11,12,14,15,16,17-dodecahydrocyclopenta[a]phenanthrene-17-carboxylate
@<TRIPOS>ATOM
      1 C1         -1.7948    0.4847   -2.0854 C.3       1 <0>        -0.1384
      2 C2         -0.7338    1.4230   -1.5068 C.3       1 <0>        -0.0381
      3 C3         -1.1921    2.8839   -1.5032 C.3       1 <0>        -0.1218
      4 C4         -2.2811    3.1009   -0.4569 C.3       1 <0>        -0.1173
      5 C5         -1.6979    2.8088    0.9308 C.3       1 <0>        -0.0651
      6 H1         -0.8349    3.4504    1.1087 H         1 <0>         0.0778
      7 C6         -1.2915    1.3544    0.9770 C.3       1 <0>        -0.0735
      8 H2         -2.1800    0.7349    0.8552 H         1 <0>         0.0776
      9 C7         -0.2939    0.9921   -0.0978 C.3       1 <0>        -0.0707
     10 H3         -0.1341   -0.0860   -0.0884 H         1 <0>         0.0780
     11 C8          1.0593    1.7031    0.0907 C.3       1 <0>        -0.1174
     12 C9          1.7270    1.5804   -1.2984 C.3       1 <0>        -0.1190
     13 C10         0.5897    1.3746   -2.3163 C.3       1 <0>        -0.0851
     14 H4          0.6949    0.4056   -2.8042 H         1 <0>         0.1043
     15 C11         0.6097    2.4761   -3.3445 C.2       1 <0>         0.4707
     16 O1          1.1172    3.5403   -3.0800 O.2       1 <0>        -0.5048
     17 O2          0.0636    2.2751   -4.5541 O.3       1 <0>        -0.3586
     18 C12         0.1191    3.3803   -5.4942 C.3       1 <0>         0.0337
     19 C13        -0.6923    1.0624    2.3571 C.3       1 <0>        -0.1154
     20 C14        -1.7696    1.2536    3.4264 C.3       1 <0>        -0.0978
     21 C15        -2.3414    2.6535    3.2941 C.2       1 <0>        -0.0128
     22 C16        -2.4269    3.3963    4.3971 C.2       1 <0>        -0.2416
     23 C17        -2.9866    4.7506    4.3276 C.2       1 <0>         0.3868
     24 O3         -2.7459    5.5858    5.1740 O.2       1 <0>        -0.4569
     25 C18        -3.8818    5.0507    3.1412 C.3       1 <0>        -0.1615
     26 C19        -3.1426    4.5958    1.8837 C.3       1 <0>        -0.1043
     27 C20        -2.7776    3.0923    1.9831 C.3       1 <0>        -0.0345
     28 C21        -4.0315    2.3053    1.5963 C.3       1 <0>        -0.1469
     29 H5         -2.6723    0.4858   -1.4388 H         1 <0>         0.0637
     30 H6         -2.0771    0.8257   -3.0815 H         1 <0>         0.0614
     31 H7         -1.3910   -0.5258   -2.1482 H         1 <0>         0.0610
     32 H8         -0.3418    3.5269   -1.2758 H         1 <0>         0.0773
     33 H9         -1.5837    3.1404   -2.4875 H         1 <0>         0.0584
     34 H10        -2.6266    4.1338   -0.4980 H         1 <0>         0.0674
     35 H11        -3.1160    2.4282   -0.6536 H         1 <0>         0.0727
     36 H12         0.9095    2.7503    0.3535 H         1 <0>         0.0719
     37 H13         1.6551    1.1990    0.8516 H         1 <0>         0.0723
     38 H14         2.2756    2.4931   -1.5309 H         1 <0>         0.0840
     39 H15         2.4017    0.7245   -1.3141 H         1 <0>         0.0745
     40 H16        -0.3562    3.0856   -6.4298 H         1 <0>         0.1017
     41 H17        -0.4044    4.2399   -5.0758 H         1 <0>         0.0627
     42 H18         1.1595    3.6450   -5.6829 H         1 <0>         0.0630
     43 H19        -0.3291    0.0351    2.3862 H         1 <0>         0.0706
     44 H20         0.1345    1.7468    2.5471 H         1 <0>         0.0686
     45 H21        -2.5624    0.5196    3.2824 H         1 <0>         0.0842
     46 H22        -1.3290    1.1304    4.4157 H         1 <0>         0.0778
     47 H23        -2.0838    3.0015    5.3420 H         1 <0>         0.1339
     48 H24        -4.7451    4.5562    3.2416 H         1 <0>         0.0902
     49 H25        -4.0806    6.1211    3.0885 H         1 <0>         0.0906
     50 H26        -3.7763    4.7739    1.0149 H         1 <0>         0.0850
     51 H27        -2.2264    5.1772    1.7801 H         1 <0>         0.0692
     52 H28        -3.7992    1.2406    1.5722 H         1 <0>         0.0633
     53 H29        -4.8166    2.4894    2.3297 H         1 <0>         0.0575
     54 H30        -4.3719    2.6253    0.6115 H         1 <0>         0.0701
@<TRIPOS>BOND
     1    1    2 1
     2    1   29 1
     3    1   30 1
     4    1   31 1
     5    2    9 1
     6    2   13 1
     7    2    3 1
     8    3    4 1
     9    3   32 1
    10    3   33 1
    11    4    5 1
    12    4   34 1
    13    4   35 1
    14    5    6 1
    15    5   27 1
    16    5    7 1
    17    7    8 1
    18    7    9 1
    19    7   19 1
    20    9   10 1
    21    9   11 1
    22   11   12 1
    23   11   36 1
    24   11   37 1
    25   12   13 1
    26   12   38 1
    27   12   39 1
    28   13   14 1
    29   13   15 1
    30   15   16 2
    31   15   17 1
    32   17   18 1
    33   18   40 1
    34   18   41 1
    35   18   42 1
    36   19   20 1
    37   19   43 1
    38   19   44 1
    39   20   21 1
    40   20   45 1
    41   20   46 1
    42   21   27 1
    43   21   22 2
    44   22   23 1
    45   22   47 1
    46   23   24 2
    47   23   25 1
    48   25   26 1
    49   25   48 1
    50   25   49 1
    51   26   27 1
    52   26   50 1
    53   26   51 1
    54   27   28 1
    55   28   52 1
    56   28   53 1
    57   28   54 1
@<TRIPOS>MOLECULE
ZINC04533106
   54    57     0     0     0
SMALL
USER_CHARGES
methyl 10,13-dimethyl-3-oxo-1,2,6,7,8,9,11,12,14,15,16,17-dodecahydrocyclopenta[a]phenanthrene-17-carboxylate
@<TRIPOS>ATOM
      1 C1          0.3483   -1.1850   -3.8062 C.3       1 <0>        -0.1619
      2 C2          0.9584   -0.4324   -4.9906 C.3       1 <0>        -0.0356
      3 C3          0.7703    1.0570   -4.8233 C.3       1 <0>        -0.1032
      4 C4         -0.4066    1.5432   -5.6930 C.3       1 <0>        -0.1091
      5 C5         -1.5034    0.4908   -5.6425 C.3       1 <0>        -0.0752
      6 H1         -1.6200    0.1728   -4.5967 H         1 <0>         0.0755
      7 C6         -1.0747   -0.7205   -6.4789 C.3       1 <0>        -0.0729
      8 H2         -1.2521   -0.4892   -7.5463 H         1 <0>         0.0717
      9 C7          0.3996   -0.9292   -6.3379 C.3       1 <0>        -0.0715
     10 H3          0.9062   -0.3687   -7.1495 H         1 <0>         0.0740
     11 C8          0.9121   -2.3755   -6.3870 C.3       1 <0>        -0.1183
     12 C9          2.3473   -2.2606   -5.8040 C.3       1 <0>        -0.1173
     13 C10         2.4302   -0.8817   -5.1034 C.3       1 <0>        -0.0837
     14 H4          2.9903   -0.1759   -5.7048 H         1 <0>         0.1147
     15 C11         3.0278   -1.0251   -3.7306 C.2       1 <0>         0.4690
     16 O1          2.6805   -0.2858   -2.8403 O.2       1 <0>        -0.5002
     17 O2          3.9469   -1.9744   -3.4946 O.3       1 <0>        -0.3587
     18 C12         4.4804   -2.0547   -2.1466 C.3       1 <0>         0.0340
     19 C13        -1.9750   -1.8977   -6.1401 C.3       1 <0>        -0.1096
     20 C14        -3.3926   -1.5355   -6.6147 C.3       1 <0>        -0.0988
     21 C15        -3.8120   -0.2077   -6.0110 C.2       1 <0>        -0.0156
     22 C16        -4.9981   -0.1611   -5.4089 C.2       1 <0>        -0.2442
     23 C17        -5.5110    1.0867   -4.8397 C.2       1 <0>         0.3871
     24 O3         -6.4658    1.0968   -4.0884 O.2       1 <0>        -0.4594
     25 C18        -4.8168    2.3691   -5.2491 C.3       1 <0>        -0.1575
     26 C19        -3.3116    2.1312   -5.2024 C.3       1 <0>        -0.1079
     27 C20        -2.8798    0.9742   -6.0916 C.3       1 <0>        -0.0233
     28 C21        -2.8250    1.4776   -7.5319 C.3       1 <0>        -0.1425
     29 H5         -0.7368   -1.0862   -3.8330 H         1 <0>         0.0642
     30 H6          0.6188   -2.2391   -3.8673 H         1 <0>         0.0528
     31 H7          0.7285   -0.7657   -2.8746 H         1 <0>         0.0749
     32 H8          1.6815    1.5824   -5.1232 H         1 <0>         0.0630
     33 H9          0.5618    1.2870   -3.7745 H         1 <0>         0.0711
     34 H10        -0.0651    1.6813   -6.7198 H         1 <0>         0.0661
     35 H11        -0.7795    2.4910   -5.3031 H         1 <0>         0.0680
     36 H12         0.9527   -2.7297   -7.4196 H         1 <0>         0.0693
     37 H13         0.2983   -3.0404   -5.7863 H         1 <0>         0.0738
     38 H14         3.0805   -2.3151   -6.6075 H         1 <0>         0.0753
     39 H15         2.5212   -3.0577   -5.0821 H         1 <0>         0.0764
     40 H16         4.9613   -1.1110   -1.8893 H         1 <0>         0.0628
     41 H17         3.6691   -2.2520   -1.4459 H         1 <0>         0.0627
     42 H18         5.2113   -2.8616   -2.0925 H         1 <0>         0.1015
     43 H19        -1.9872   -2.0726   -5.0672 H         1 <0>         0.0688
     44 H20        -1.6352   -2.7914   -6.6618 H         1 <0>         0.0745
     45 H21        -4.0857   -2.3139   -6.2954 H         1 <0>         0.0767
     46 H22        -3.4020   -1.4646   -7.7009 H         1 <0>         0.0843
     47 H23        -5.6052   -1.0564   -5.3623 H         1 <0>         0.1313
     48 H24        -5.0652    3.1001   -4.6136 H         1 <0>         0.0827
     49 H25        -5.1253    2.6531   -6.2555 H         1 <0>         0.1001
     50 H26        -3.0145    1.9125   -4.1760 H         1 <0>         0.0695
     51 H27        -2.7977    3.0353   -5.5328 H         1 <0>         0.0826
     52 H28        -2.1072    2.2948   -7.6041 H         1 <0>         0.0668
     53 H29        -2.5172    0.6646   -8.1895 H         1 <0>         0.0626
     54 H30        -3.8113    1.8329   -7.8305 H         1 <0>         0.0585
@<TRIPOS>BOND
     1    1    2 1
     2    1   29 1
     3    1   30 1
     4    1   31 1
     5    2    9 1
     6    2   13 1
     7    2    3 1
     8    3    4 1
     9    3   32 1
    10    3   33 1
    11    4    5 1
    12    4   34 1
    13    4   35 1
    14    5    6 1
    15    5   27 1
    16    5    7 1
    17    7    8 1
    18    7    9 1
    19    7   19 1
    20    9   10 1
    21    9   11 1
    22   11   12 1
    23   11   36 1
    24   11   37 1
    25   12   13 1
    26   12   38 1
    27   12   39 1
    28   13   14 1
    29   13   15 1
    30   15   16 2
    31   15   17 1
    32   17   18 1
    33   18   40 1
    34   18   41 1
    35   18   42 1
    36   19   20 1
    37   19   43 1
    38   19   44 1
    39   20   21 1
    40   20   45 1
    41   20   46 1
    42   21   27 1
    43   21   22 2
    44   22   23 1
    45   22   47 1
    46   23   24 2
    47   23   25 1
    48   25   26 1
    49   25   48 1
    50   25   49 1
    51   26   27 1
    52   26   50 1
    53   26   51 1
    54   27   28 1
    55   28   52 1
    56   28   53 1
    57   28   54 1
@<TRIPOS>MOLECULE
ZINC04533107
   54    57     0     0     0
SMALL
USER_CHARGES
methyl 10,13-dimethyl-3-oxo-1,2,6,7,8,9,11,12,14,15,16,17-dodecahydrocyclopenta[a]phenanthrene-17-carboxylate
@<TRIPOS>ATOM
      1 C1         -2.8525    0.2745    1.1577 C.3       1 <0>        -0.1521
      2 C2         -2.2503    1.6590    0.7868 C.3       1 <0>        -0.0319
      3 C3         -3.1147    2.6702    1.4898 C.3       1 <0>        -0.0882
      4 C4         -2.4301    4.0063    1.7546 C.3       1 <0>        -0.1094
      5 C5         -1.1505    3.7331    2.5511 C.3       1 <0>        -0.0693
      6 H1         -1.3969    3.1144    3.4195 H         1 <0>         0.0757
      7 C6         -0.1974    2.9608    1.6436 C.3       1 <0>        -0.0699
      8 H2          0.7294    2.7556    2.2056 H         1 <0>         0.0705
      9 C7         -0.7902    1.6148    1.2443 C.3       1 <0>        -0.0698
     10 H3         -0.6837    0.8979    2.0888 H         1 <0>         0.0819
     11 C8         -0.0128    1.0903    0.0080 C.3       1 <0>        -0.1227
     12 C9         -0.8029    1.6175   -1.2057 C.3       1 <0>        -0.1143
     13 C10        -2.2684    1.7214   -0.7382 C.3       1 <0>        -0.0774
     14 H4         -2.8184    0.8451   -1.1226 H         1 <0>         0.1065
     15 C11        -2.9088    2.9639   -1.2846 C.2       1 <0>         0.4586
     16 O1         -3.3237    3.8115   -0.5301 O.2       1 <0>        -0.4853
     17 O2         -3.0206    3.1335   -2.6114 O.3       1 <0>        -0.3617
     18 C12        -3.6507    4.3592   -3.0685 C.3       1 <0>         0.0356
     19 C13         0.1725    3.7942    0.4204 C.3       1 <0>        -0.1189
     20 C14         0.8978    5.0683    0.8678 C.3       1 <0>        -0.1005
     21 C15         0.0187    5.8035    1.8617 C.2       1 <0>        -0.0084
     22 C16        -0.2173    7.0962    1.6416 C.2       1 <0>        -0.2472
     23 C17        -1.0224    7.8681    2.5921 C.2       1 <0>         0.3882
     24 O3         -1.5530    8.9137    2.2731 O.2       1 <0>        -0.4613
     25 C18        -1.1645    7.2993    3.9886 C.3       1 <0>        -0.1571
     26 C19        -1.5313    5.8225    3.8634 C.3       1 <0>        -0.1113
     27 C20        -0.5275    5.0442    3.0317 C.3       1 <0>        -0.0242
     28 C21         0.6457    4.6998    3.9577 C.3       1 <0>        -0.1453
     29 H5         -2.2569   -0.5153    0.6997 H         1 <0>         0.0575
     30 H6         -2.8451    0.1534    2.2409 H         1 <0>         0.0600
     31 H7         -3.8777    0.2145    0.7924 H         1 <0>         0.0544
     32 H8         -4.0523    2.8246    0.9636 H         1 <0>         0.0746
     33 H9         -3.3879    2.2424    2.4727 H         1 <0>         0.0428
     34 H10        -3.1081    4.6339    2.3377 H         1 <0>         0.0570
     35 H11        -2.1929    4.5148    0.8255 H         1 <0>         0.0871
     36 H12         0.0021   -0.0041    0.0020 H         1 <0>         0.0681
     37 H13         1.0114    1.4633    0.0003 H         1 <0>         0.0767
     38 H14        -0.4343    2.5915   -1.5173 H         1 <0>         0.0754
     39 H15        -0.7281    0.9120   -2.0355 H         1 <0>         0.0757
     40 H16        -4.6677    4.4118   -2.6798 H         1 <0>         0.0627
     41 H17        -3.0803    5.2164   -2.7107 H         1 <0>         0.0625
     42 H18        -3.6772    4.3697   -4.1581 H         1 <0>         0.1005
     43 H19         0.8462    3.2287   -0.2278 H         1 <0>         0.0744
     44 H20        -0.7174    4.0704   -0.1387 H         1 <0>         0.0696
     45 H21         1.0804    5.7037    0.0003 H         1 <0>         0.0745
     46 H22         1.8472    4.8053    1.3312 H         1 <0>         0.0844
     47 H23         0.1466    7.5596    0.7373 H         1 <0>         0.1312
     48 H24        -1.8859    7.7905    4.4768 H         1 <0>         0.0816
     49 H25        -0.2271    7.4112    4.5324 H         1 <0>         0.0979
     50 H26        -2.5226    5.7463    3.4257 H         1 <0>         0.0772
     51 H27        -1.5609    5.3861    4.8670 H         1 <0>         0.0795
     52 H28         1.3816    4.1123    3.4087 H         1 <0>         0.0618
     53 H29         1.1085    5.6196    4.3152 H         1 <0>         0.0580
     54 H30         0.2806    4.1226    4.8073 H         1 <0>         0.0640
@<TRIPOS>BOND
     1    1    2 1
     2    1   29 1
     3    1   30 1
     4    1   31 1
     5    2    9 1
     6    2   13 1
     7    2    3 1
     8    3    4 1
     9    3   32 1
    10    3   33 1
    11    4    5 1
    12    4   34 1
    13    4   35 1
    14    5    6 1
    15    5   27 1
    16    5    7 1
    17    7    8 1
    18    7    9 1
    19    7   19 1
    20    9   10 1
    21    9   11 1
    22   11   12 1
    23   11   36 1
    24   11   37 1
    25   12   13 1
    26   12   38 1
    27   12   39 1
    28   13   14 1
    29   13   15 1
    30   15   16 2
    31   15   17 1
    32   17   18 1
    33   18   40 1
    34   18   41 1
    35   18   42 1
    36   19   20 1
    37   19   43 1
    38   19   44 1
    39   20   21 1
    40   20   45 1
    41   20   46 1
    42   21   27 1
    43   21   22 2
    44   22   23 1
    45   22   47 1
    46   23   24 2
    47   23   25 1
    48   25   26 1
    49   25   48 1
    50   25   49 1
    51   26   27 1
    52   26   50 1
    53   26   51 1
    54   27   28 1
    55   28   52 1
    56   28   53 1
    57   28   54 1
@<TRIPOS>MOLECULE
ZINC04533108
   54    57     0     0     0
SMALL
USER_CHARGES
methyl 10,13-dimethyl-3-oxo-1,2,6,7,8,9,11,12,14,15,16,17-dodecahydrocyclopenta[a]phenanthrene-17-carboxylate
@<TRIPOS>ATOM
      1 C1         -0.9598    2.2546   -1.1199 C.3       1 <0>        -0.1701
      2 C2         -1.2732    1.9264    0.3387 C.3       1 <0>        -0.0358
      3 C3         -0.7164    0.5741    0.7102 C.3       1 <0>        -0.1039
      4 C4         -1.5288   -0.5211   -0.0034 C.3       1 <0>        -0.1162
      5 C5         -3.0020   -0.4421    0.3712 C.3       1 <0>        -0.0661
      6 H1         -3.0598   -0.5346    1.4693 H         1 <0>         0.0722
      7 C6         -3.5936    0.9264    0.0068 C.3       1 <0>        -0.0618
      8 H2         -4.6238    0.9758    0.4206 H         1 <0>         0.0733
      9 C7         -2.7731    1.9861    0.6809 C.3       1 <0>        -0.0772
     10 H3         -2.8772    1.8402    1.7851 H         1 <0>         0.0717
     11 C8         -3.1002    3.4577    0.4037 C.3       1 <0>        -0.1174
     12 C9         -1.8631    4.1910    0.9973 C.3       1 <0>        -0.1179
     13 C10        -0.7549    3.1184    1.1704 C.3       1 <0>        -0.0845
     14 H4         -0.6434    2.8309    2.2065 H         1 <0>         0.1155
     15 C11         0.5435    3.6112    0.5908 C.2       1 <0>         0.4719
     16 O1          1.3689    2.8206    0.1990 O.2       1 <0>        -0.5021
     17 O2          0.7847    4.9292    0.5090 O.3       1 <0>        -0.3579
     18 C12         2.0578    5.3322   -0.0610 C.3       1 <0>         0.0335
     19 C13        -3.6937    1.0780   -1.5049 C.3       1 <0>        -0.1172
     20 C14        -4.7153    0.0530   -2.0252 C.3       1 <0>        -0.1011
     21 C15        -4.1968   -1.3219   -1.6440 C.2       1 <0>        -0.0147
     22 C16        -4.1075   -2.2327   -2.6143 C.2       1 <0>        -0.2455
     23 C17        -3.6083   -3.5792   -2.3142 C.2       1 <0>         0.3863
     24 O3         -3.1433   -4.2978   -3.1745 O.2       1 <0>        -0.4573
     25 C18        -3.7047   -4.0227   -0.8664 C.3       1 <0>        -0.1599
     26 C19        -3.0911   -2.9070   -0.0187 C.3       1 <0>        -0.1114
     27 C20        -3.8168   -1.5856   -0.2199 C.3       1 <0>        -0.0241
     28 C21        -5.1215   -1.6803    0.5894 C.3       1 <0>        -0.1460
     29 H5         -1.3006    1.4387   -1.7572 H         1 <0>         0.0680
     30 H6          0.1157    2.3847   -1.2400 H         1 <0>         0.0725
     31 H7         -1.4710    3.1747   -1.4032 H         1 <0>         0.0577
     32 H8          0.3314    0.5045    0.4049 H         1 <0>         0.0755
     33 H9         -0.7815    0.4281    1.7922 H         1 <0>         0.0623
     34 H10        -1.4156   -0.4308   -1.0794 H         1 <0>         0.0656
     35 H11        -1.1296   -1.4896    0.3130 H         1 <0>         0.0670
     36 H12        -3.2103    3.6579   -0.6561 H         1 <0>         0.0740
     37 H13        -4.0061    3.7523    0.9420 H         1 <0>         0.0688
     38 H14        -1.5254    4.9681    0.3124 H         1 <0>         0.0792
     39 H15        -2.1174    4.6246    1.9643 H         1 <0>         0.0748
     40 H16         2.1342    4.9566   -1.0814 H         1 <0>         0.0629
     41 H17         2.1245    6.4201   -0.0684 H         1 <0>         0.1017
     42 H18         2.8705    4.9224    0.5387 H         1 <0>         0.0629
     43 H19        -4.0168    2.0784   -1.7731 H         1 <0>         0.0737
     44 H20        -2.7470    0.8356   -1.9858 H         1 <0>         0.0757
     45 H21        -5.6831    0.2353   -1.5741 H         1 <0>         0.0844
     46 H22        -4.7794    0.1327   -3.1091 H         1 <0>         0.0770
     47 H23        -4.3976   -1.9768   -3.6222 H         1 <0>         0.1335
     48 H24        -4.6639   -4.1732   -0.6271 H         1 <0>         0.0905
     49 H25        -3.1393   -4.9455   -0.7260 H         1 <0>         0.0912
     50 H26        -3.1504   -3.1878    1.0327 H         1 <0>         0.0828
     51 H27        -2.0478   -2.7987   -0.3065 H         1 <0>         0.0764
     52 H28        -5.6670   -0.7399    0.5104 H         1 <0>         0.0618
     53 H29        -5.7352   -2.4905    0.1958 H         1 <0>         0.0591
     54 H30        -4.8867   -1.8774    1.6354 H         1 <0>         0.0648
@<TRIPOS>BOND
     1    1    2 1
     2    1   29 1
     3    1   30 1
     4    1   31 1
     5    2    9 1
     6    2   13 1
     7    2    3 1
     8    3    4 1
     9    3   32 1
    10    3   33 1
    11    4    5 1
    12    4   34 1
    13    4   35 1
    14    5    6 1
    15    5   27 1
    16    5    7 1
    17    7    8 1
    18    7    9 1
    19    7   19 1
    20    9   10 1
    21    9   11 1
    22   11   12 1
    23   11   36 1
    24   11   37 1
    25   12   13 1
    26   12   38 1
    27   12   39 1
    28   13   14 1
    29   13   15 1
    30   15   16 2
    31   15   17 1
    32   17   18 1
    33   18   40 1
    34   18   41 1
    35   18   42 1
    36   19   20 1
    37   19   43 1
    38   19   44 1
    39   20   21 1
    40   20   45 1
    41   20   46 1
    42   21   27 1
    43   21   22 2
    44   22   23 1
    45   22   47 1
    46   23   24 2
    47   23   25 1
    48   25   26 1
    49   25   48 1
    50   25   49 1
    51   26   27 1
    52   26   50 1
    53   26   51 1
    54   27   28 1
    55   28   52 1
    56   28   53 1
    57   28   54 1
@<TRIPOS>MOLECULE
ZINC06500184
   49    52     0     0     0
SMALL
USER_CHARGES

@<TRIPOS>ATOM
      1 C1         -0.0187    1.5258    0.0104 C.3       1 <0>        -0.1340
      2 C2          0.0021   -0.0041    0.0020 C.3       1 <0>        -0.0575
      3 C3         -1.4158   -0.5376    0.0743 C.3       1 <0>        -0.1031
      4 C4         -2.0776    0.1004    1.3058 C.3       1 <0>        -0.1217
      5 C5         -1.2987   -0.1970    2.5836 C.3       1 <0>        -0.0658
      6 H1         -1.3515   -1.2658    2.7907 H         1 <0>         0.0710
      7 C6          0.1752    0.2165    2.4630 C.3       1 <0>        -0.0778
      8 H2          0.2494    1.2951    2.3243 H         1 <0>         0.0900
      9 C7          0.7514   -0.5272    1.2569 C.3       1 <0>        -0.0832
     10 H3          0.6125   -1.6031    1.3628 H         1 <0>         0.0775
     11 C8          2.2067   -0.1924    0.9110 C.3       1 <0>        -0.1133
     12 C9          2.3039   -0.5736   -0.5914 C.3       1 <0>        -0.1573
     13 C10         0.8625   -0.5030   -1.1542 C.3       1 <0>         0.1103
     14 H4          0.5320   -1.4921   -1.4715 H         1 <0>         0.0566
     15 O1          0.8024    0.4146   -2.2480 O.3       1 <0>        -0.5599
     16 C11         0.9157   -0.1993    3.7375 C.3       1 <0>        -0.1136
     17 C12         0.3625    0.5959    4.9221 C.3       1 <0>        -0.0979
     18 C13        -1.1396    0.3896    4.9907 C.2       1 <0>        -0.0157
     19 C14        -1.6676    0.0666    6.1711 C.2       1 <0>        -0.2431
     20 C15        -3.1159   -0.1282    6.2982 C.2       1 <0>         0.3881
     21 O2         -3.5965   -0.7740    7.2060 O.2       1 <0>        -0.4582
     22 C16        -3.9807    0.5207    5.2350 C.3       1 <0>        -0.1685
     23 C17        -3.3979    0.1372    3.8755 C.3       1 <0>        -0.1050
     24 C18        -1.9353    0.5692    3.7501 C.3       1 <0>        -0.0312
     25 C19        -1.9191    2.0586    3.4006 C.3       1 <0>        -0.1502
     26 H5          1.0039    1.9031    0.0027 H         1 <0>         0.0538
     27 H6         -0.5459    1.8868   -0.8726 H         1 <0>         0.0594
     28 H7         -0.5289    1.8773    0.9072 H         1 <0>         0.0609
     29 H8         -1.9632   -0.2607   -0.8268 H         1 <0>         0.0672
     30 H9         -1.3995   -1.6222    0.1815 H         1 <0>         0.0623
     31 H10        -2.1276    1.1799    1.1632 H         1 <0>         0.0756
     32 H11        -3.0901   -0.2904    1.4077 H         1 <0>         0.0651
     33 H12         2.4020    0.8706    1.0526 H         1 <0>         0.0707
     34 H13         2.8929   -0.7943    1.5068 H         1 <0>         0.0660
     35 H14         2.9456    0.1342   -1.1162 H         1 <0>         0.0725
     36 H15         2.6974   -1.5847   -0.6961 H         1 <0>         0.0666
     37 H16         1.3308    0.1496   -3.0133 H         1 <0>         0.3752
     38 H17         0.7681   -1.2649    3.9134 H         1 <0>         0.0654
     39 H18         1.9798    0.0081    3.6247 H         1 <0>         0.0717
     40 H19         0.8223    0.2433    5.8454 H         1 <0>         0.0773
     41 H20         0.5800    1.6550    4.7845 H         1 <0>         0.0842
     42 H21        -1.0290   -0.0520    7.0340 H         1 <0>         0.1336
     43 H22        -5.0043    0.1549    5.3159 H         1 <0>         0.0921
     44 H23        -3.9630    1.6041    5.3535 H         1 <0>         0.0997
     45 H24        -3.4588   -0.9444    3.7551 H         1 <0>         0.0683
     46 H25        -3.9842    0.6144    3.0902 H         1 <0>         0.0838
     47 H26        -2.4886    2.2234    2.4859 H         1 <0>         0.0698
     48 H27        -2.3671    2.6278    4.2151 H         1 <0>         0.0583
     49 H28        -0.8900    2.3857    3.2518 H         1 <0>         0.0638
@<TRIPOS>BOND
     1    1    2 1
     2    1   26 1
     3    1   27 1
     4    1   28 1
     5    2    9 1
     6    2   13 1
     7    2    3 1
     8    3    4 1
     9    3   29 1
    10    3   30 1
    11    4    5 1
    12    4   31 1
    13    4   32 1
    14    5    6 1
    15    5   24 1
    16    5    7 1
    17    7    8 1
    18    7    9 1
    19    7   16 1
    20    9   10 1
    21    9   11 1
    22   11   12 1
    23   11   33 1
    24   11   34 1
    25   12   13 1
    26   12   35 1
    27   12   36 1
    28   13   14 1
    29   13   15 1
    30   15   37 1
    31   16   17 1
    32   16   38 1
    33   16   39 1
    34   17   18 1
    35   17   40 1
    36   17   41 1
    37   18   24 1
    38   18   19 2
    39   19   20 1
    40   19   42 1
    41   20   21 2
    42   20   22 1
    43   22   23 1
    44   22   43 1
    45   22   44 1
    46   23   24 1
    47   23   45 1
    48   23   46 1
    49   24   25 1
    50   25   47 1
    51   25   48 1
    52   25   49 1
@<TRIPOS>MOLECULE
ZINC06500184
   49    52     0     0     0
SMALL
USER_CHARGES

@<TRIPOS>ATOM
      1 C1         -0.0187    1.5258    0.0104 C.3       1 <0>        -0.1331
      2 C2          0.0021   -0.0041    0.0020 C.3       1 <0>        -0.0572
      3 C3         -1.4159   -0.5378    0.0735 C.3       1 <0>        -0.1036
      4 C4         -2.0778    0.0989    1.3057 C.3       1 <0>        -0.1199
      5 C5         -1.2984   -0.2007    2.5830 C.3       1 <0>        -0.0660
      6 H1         -1.3372   -1.2751    2.7625 H         1 <0>         0.0674
      7 C6          0.1739    0.2141    2.4646 C.3       1 <0>        -0.0703
      8 H2          0.2526    1.2937    2.3369 H         1 <0>         0.0869
      9 C7          0.7513   -0.5274    1.2567 C.3       1 <0>        -0.0830
     10 H3          0.6138   -1.6036    1.3607 H         1 <0>         0.0776
     11 C8          2.2065   -0.1916    0.9118 C.3       1 <0>        -0.1135
     12 C9          2.3043   -0.5732   -0.5906 C.3       1 <0>        -0.1573
     13 C10         0.8630   -0.5032   -1.1539 C.3       1 <0>         0.1102
     14 H4          0.5330   -1.4925   -1.4709 H         1 <0>         0.0566
     15 O1          0.8030    0.4140   -2.2480 O.3       1 <0>        -0.5599
     16 C11         0.8956   -0.2225    3.7452 C.3       1 <0>        -0.0859
     17 C12         0.2103    0.4051    4.9251 C.2       1 <0>        -0.1410
     18 C13        -1.0508    0.7245    4.9182 C.2       1 <0>        -0.1109
     19 C14        -1.9511    0.5024    3.7621 C.3       1 <0>        -0.0170
     20 C15        -3.1893   -0.2815    4.2070 C.3       1 <0>        -0.1001
     21 C16        -3.8910    0.4663    5.3441 C.3       1 <0>        -0.1766
     22 C17        -2.9135    0.6483    6.4838 C.2       1 <0>         0.3682
     23 O2         -3.1778    0.2614    7.5968 O.2       1 <0>        -0.4548
     24 C18        -1.6335    1.3627    6.1707 C.3       1 <0>        -0.1377
     25 C19        -2.4235    1.8799    3.2929 C.3       1 <0>        -0.1529
     26 H5          1.0039    1.9031    0.0027 H         1 <0>         0.0535
     27 H6         -0.5459    1.8868   -0.8726 H         1 <0>         0.0590
     28 H7         -0.5289    1.8773    0.9072 H         1 <0>         0.0606
     29 H8         -1.9632   -0.2600   -0.8272 H         1 <0>         0.0666
     30 H9         -1.3995   -1.6225    0.1796 H         1 <0>         0.0618
     31 H10        -2.1275    1.1785    1.1645 H         1 <0>         0.0770
     32 H11        -3.0902   -0.2920    1.4072 H         1 <0>         0.0628
     33 H12         2.4010    0.8715    1.0532 H         1 <0>         0.0707
     34 H13         2.8928   -0.7930    1.5079 H         1 <0>         0.0661
     35 H14         2.9458    0.1348   -1.1154 H         1 <0>         0.0724
     36 H15         2.6981   -1.5842   -0.6950 H         1 <0>         0.0666
     37 H16         1.3317    0.1488   -3.0130 H         1 <0>         0.3750
     38 H17         0.8562   -1.3081    3.8348 H         1 <0>         0.0754
     39 H18         1.9344    0.1056    3.7091 H         1 <0>         0.0741
     40 H19         0.7884    0.5990    5.8165 H         1 <0>         0.1079
     41 H20        -3.8739   -0.3867    3.3653 H         1 <0>         0.0803
     42 H21        -2.8877   -1.2696    4.5544 H         1 <0>         0.0669
     43 H22        -4.2240    1.4416    4.9892 H         1 <0>         0.1021
     44 H23        -4.7487   -0.1122    5.6873 H         1 <0>         0.0882
     45 H24        -0.9488    1.2273    7.0080 H         1 <0>         0.0925
     46 H25        -1.8046    2.4254    5.9994 H         1 <0>         0.1129
     47 H26        -3.1424    1.7608    2.4822 H         1 <0>         0.0667
     48 H27        -2.8962    2.4043    4.1235 H         1 <0>         0.0562
     49 H28        -1.5687    2.4560    2.9388 H         1 <0>         0.0588
@<TRIPOS>BOND
     1    1    2 1
     2    1   26 1
     3    1   27 1
     4    1   28 1
     5    2    9 1
     6    2   13 1
     7    2    3 1
     8    3    4 1
     9    3   29 1
    10    3   30 1
    11    4    5 1
    12    4   31 1
    13    4   32 1
    14    5    6 1
    15    5   19 1
    16    5    7 1
    17    7    8 1
    18    7    9 1
    19    7   16 1
    20    9   10 1
    21    9   11 1
    22   11   12 1
    23   11   33 1
    24   11   34 1
    25   12   13 1
    26   12   35 1
    27   12   36 1
    28   13   14 1
    29   13   15 1
    30   15   37 1
    31   16   17 1
    32   16   38 1
    33   16   39 1
    34   17   18 2
    35   17   40 1
    36   18   24 1
    37   18   19 1
    38   19   20 1
    39   19   25 1
    40   20   21 1
    41   20   41 1
    42   20   42 1
    43   21   22 1
    44   21   43 1
    45   21   44 1
    46   22   23 2
    47   22   24 1
    48   24   45 1
    49   24   46 1
    50   25   47 1
    51   25   48 1
    52   25   49 1
@<TRIPOS>MOLECULE
ZINC14904354
   57    60     0     0     0
SMALL
USER_CHARGES
(1S,3aR,3bR,5aR,9aR,9bR,11aS)-1-acetyl-6,9a,11a-trimethyl-2,3,3a,3b,4,5,5a,8,9,9b,10,11-dodecahydro-1H-indeno[5,4-f]quinolin-7-one
@<TRIPOS>ATOM
      1 C1         -4.3705   -1.2043   -2.0562 C.3       1 <0>        -0.1994
      2 C2         -3.0171   -0.7858   -2.5702 C.2       1 <0>         0.3616
      3 O1         -2.7805   -0.8300   -3.7536 O.2       1 <0>        -0.4530
      4 C3         -1.9589   -0.3121   -1.6074 C.3       1 <0>        -0.1251
      5 H1         -2.0359   -0.8216   -0.7504 H         1 <0>         0.0896
      6 C4         -0.5575   -0.4986   -2.2239 C.3       1 <0>        -0.1191
      7 C5          0.0761    0.9076   -2.3039 C.3       1 <0>        -0.1223
      8 C6         -0.6749    1.7265   -1.1951 C.3       1 <0>        -0.0728
      9 H2         -0.6096    2.8063   -1.3290 H         1 <0>         0.0888
     10 C7         -2.1101    1.1936   -1.3542 C.3       1 <0>        -0.0381
     11 C8         -2.9817    1.4983   -0.1578 C.3       1 <0>        -0.1104
     12 C9         -2.3368    1.0124    1.1400 C.3       1 <0>        -0.1183
     13 C10        -0.9792    1.7073    1.2943 C.3       1 <0>        -0.0664
     14 H3         -1.1050    2.7899    1.2739 H         1 <0>         0.0821
     15 C11        -0.0786    1.2724    0.1394 C.3       1 <0>        -0.0831
     16 H4          0.0018    0.1854    0.1412 H         1 <0>         0.0781
     17 C12         1.3170    1.8759    0.3074 C.3       1 <0>        -0.1113
     18 C13         1.9450    1.3638    1.6081 C.3       1 <0>        -0.1309
     19 C14         0.9365    0.4670    2.3234 C.3       1 <0>         0.1520
     20 H5          0.6808   -0.3652    1.6675 H         1 <0>         0.0740
     21 C15        -0.3323    1.2674    2.6189 C.3       1 <0>        -0.0656
     22 C16        -1.2985    0.3839    3.4072 C.3       1 <0>        -0.1154
     23 C17        -0.6877    0.1540    4.7928 C.3       1 <0>        -0.1381
     24 C18         0.7547   -0.2421    4.6685 C.2       1 <0>         0.5157
     25 O2          1.2912   -0.7537    5.6283 O.2       1 <0>        -0.5553
     26 N1          1.4819   -0.0643    3.5620 N.am      1 <0>        -0.6014
     27 C19         2.9017   -0.4235    3.5984 C.3       1 <0>         0.0761
     28 C20         0.0284    2.5105    3.4348 C.3       1 <0>        -0.1463
     29 C21        -2.7224    1.8462   -2.5953 C.3       1 <0>        -0.1566
     30 H6         -4.9797   -0.4115   -2.0376 H         1 <0>         0.0859
     31 H7         -4.7881   -1.9680   -2.7123 H         1 <0>         0.0851
     32 H8         -4.2678   -1.6073   -1.0487 H         1 <0>         0.0843
     33 H9          0.0473   -1.1456   -1.5884 H         1 <0>         0.0665
     34 H10        -0.6423   -0.9279   -3.2222 H         1 <0>         0.0786
     35 H11         1.1433    0.8593   -2.0874 H         1 <0>         0.0702
     36 H12        -0.0944    1.3487   -3.2860 H         1 <0>         0.0671
     37 H13        -3.9454    1.0048   -0.2837 H         1 <0>         0.0638
     38 H14        -3.1391    2.5752   -0.0963 H         1 <0>         0.0687
     39 H15        -2.1938   -0.0674    1.0970 H         1 <0>         0.0669
     40 H16        -2.9769    1.2652    1.9852 H         1 <0>         0.0733
     41 H17         1.9423    1.5849   -0.5366 H         1 <0>         0.0696
     42 H18         1.2405    2.9625    0.3449 H         1 <0>         0.0665
     43 H19         2.8442    0.7920    1.3791 H         1 <0>         0.0696
     44 H20         2.2023    2.2088    2.2467 H         1 <0>         0.0738
     45 H21        -1.4346   -0.5726    2.9024 H         1 <0>         0.0737
     46 H22        -2.2606    0.8860    3.5084 H         1 <0>         0.0857
     47 H23        -1.2367   -0.6381    5.3020 H         1 <0>         0.0987
     48 H24        -0.7605    1.0738    5.3732 H         1 <0>         0.1011
     49 H25         3.4871    0.4403    3.9135 H         1 <0>         0.0549
     50 H26         3.0516   -1.2409    4.3038 H         1 <0>         0.0795
     51 H27         3.2226   -0.7373    2.6051 H         1 <0>         0.0692
     52 H28         0.7242    3.1283    2.8672 H         1 <0>         0.0630
     53 H29        -0.8757    3.0815    3.6458 H         1 <0>         0.0612
     54 H30         0.4937    2.2071    4.3726 H         1 <0>         0.0547
     55 H31        -2.6851    2.9306   -2.4914 H         1 <0>         0.0607
     56 H32        -2.1590    1.5463   -3.4789 H         1 <0>         0.0669
     57 H33        -3.7592    1.5266   -2.6997 H         1 <0>         0.0515
@<TRIPOS>BOND
     1    1    2 1
     2    1   30 1
     3    1   31 1
     4    1   32 1
     5    2    3 2
     6    2    4 1
     7    4    5 1
     8    4   10 1
     9    4    6 1
    10    6    7 1
    11    6   33 1
    12    6   34 1
    13    7    8 1
    14    7   35 1
    15    7   36 1
    16    8    9 1
    17    8   15 1
    18    8   10 1
    19   10   11 1
    20   10   29 1
    21   11   12 1
    22   11   37 1
    23   11   38 1
    24   12   13 1
    25   12   39 1
    26   12   40 1
    27   13   14 1
    28   13   21 1
    29   13   15 1
    30   15   16 1
    31   15   17 1
    32   17   18 1
    33   17   41 1
    34   17   42 1
    35   18   19 1
    36   18   43 1
    37   18   44 1
    38   19   20 1
    39   19   26 1
    40   19   21 1
    41   21   22 1
    42   21   28 1
    43   22   23 1
    44   22   45 1
    45   22   46 1
    46   23   24 1
    47   23   47 1
    48   23   48 1
    49   24   25 2
    50   24   26 am
    51   26   27 1
    52   27   49 1
    53   27   50 1
    54   27   51 1
    55   28   52 1
    56   28   53 1
    57   28   54 1
    58   29   55 1
    59   29   56 1
    60   29   57 1
@<TRIPOS>MOLECULE
ZINC34801315
   57    60     0     0     0
SMALL
USER_CHARGES

@<TRIPOS>ATOM
      1 C1          0.7595    0.0425    2.2231 C.3       1 <0>        -0.2092
      2 C2          0.3764   -0.1632    0.7802 C.2       1 <0>         0.3651
      3 O1          1.1737    0.0723   -0.0957 O.2       1 <0>        -0.4546
      4 C3         -0.9975   -0.6613    0.4314 C.3       1 <0>        -0.1438
      5 H1         -1.7622   -0.2038    1.0476 H         1 <0>         0.1015
      6 C4         -1.2954   -0.4574   -1.0823 C.3       1 <0>        -0.1187
      7 C5         -2.1274   -1.6921   -1.5240 C.3       1 <0>        -0.1147
      8 C6         -2.3672   -2.4562   -0.2201 C.3       1 <0>        -0.0728
      9 H2         -3.1811   -1.9181    0.3134 H         1 <0>         0.0674
     10 C7         -1.0584   -2.2070    0.5571 C.3       1 <0>        -0.0376
     11 C8         -1.1745   -2.7219    1.9656 C.3       1 <0>        -0.1073
     12 C9         -1.7600   -4.1382    2.0098 C.3       1 <0>        -0.1075
     13 C10        -1.9047   -4.7633    0.6348 C.3       1 <0>        -0.0691
     14 H3         -0.9144   -4.9129    0.1950 H         1 <0>         0.0846
     15 C11        -2.7533   -3.8960   -0.2945 C.3       1 <0>        -0.0724
     16 H4         -3.8041   -3.9637    0.0485 H         1 <0>         0.0698
     17 C12        -2.7030   -4.4804   -1.7044 C.3       1 <0>        -0.1064
     18 C13        -3.3171   -5.8895   -1.6730 C.3       1 <0>        -0.1274
     19 C14        -3.7101   -6.2564   -0.2506 C.3       1 <0>         0.1562
     20 H5         -4.4722   -5.5434    0.0881 H         1 <0>         0.0685
     21 C15        -2.5213   -6.1635    0.7037 C.3       1 <0>        -0.0651
     22 C16        -3.0007   -6.4833    2.1178 C.3       1 <0>        -0.1147
     23 C17        -3.4788   -7.9340    2.1856 C.3       1 <0>        -0.1355
     24 C18        -4.2185   -8.3345    0.9466 C.2       1 <0>         0.5151
     25 O2         -4.7646   -9.4192    0.9340 O.2       1 <0>        -0.5567
     26 N1         -4.3162   -7.5764   -0.1516 N.am      1 <0>        -0.6019
     27 C19        -5.0767   -8.1080   -1.2831 C.3       1 <0>         0.0775
     28 C20        -1.4418   -7.1720    0.2923 C.3       1 <0>        -0.1449
     29 C21         0.1791   -2.7616   -0.1516 C.3       1 <0>        -0.1530
     30 H6          1.7862    0.4045    2.2784 H         1 <0>         0.0807
     31 H7          0.0911    0.7750    2.6756 H         1 <0>         0.0914
     32 H8          0.6784   -0.9032    2.7589 H         1 <0>         0.0929
     33 H9         -1.8797    0.4510   -1.2253 H         1 <0>         0.0641
     34 H10        -0.3694   -0.4037   -1.6480 H         1 <0>         0.0823
     35 H11        -3.0757   -1.3696   -1.9505 H         1 <0>         0.0653
     36 H12        -1.5713   -2.2942   -2.2343 H         1 <0>         0.0717
     37 H13        -0.1831   -2.7249    2.4418 H         1 <0>         0.0622
     38 H14        -1.8138   -2.0467    2.5535 H         1 <0>         0.0658
     39 H15        -1.1095   -4.7714    2.6274 H         1 <0>         0.0655
     40 H16        -2.7429   -4.1020    2.4971 H         1 <0>         0.0650
     41 H17        -3.2748   -3.8507   -2.3843 H         1 <0>         0.0710
     42 H18        -1.6692   -4.5432   -2.0406 H         1 <0>         0.0681
     43 H19        -4.2091   -5.8747   -2.3116 H         1 <0>         0.0687
     44 H20        -2.6093   -6.6073   -2.0802 H         1 <0>         0.0729
     45 H21        -2.1784   -6.3432    2.8244 H         1 <0>         0.0832
     46 H22        -3.8213   -5.8152    2.3866 H         1 <0>         0.0720
     47 H23        -2.6268   -8.5976    2.3354 H         1 <0>         0.1008
     48 H24        -4.1478   -8.0438    3.0462 H         1 <0>         0.0987
     49 H25        -4.4081   -8.6620   -1.9420 H         1 <0>         0.0544
     50 H26        -5.8579   -8.7732   -0.9154 H         1 <0>         0.0798
     51 H27        -5.5305   -7.2847   -1.8348 H         1 <0>         0.0688
     52 H28        -0.5956   -7.0975    0.9753 H         1 <0>         0.0613
     53 H29        -1.8529   -8.1808    0.3319 H         1 <0>         0.0542
     54 H30        -1.1096   -6.9547   -0.7229 H         1 <0>         0.0605
     55 H31         1.0596   -2.5913    0.4680 H         1 <0>         0.0519
     56 H32         0.0535   -3.8314   -0.3182 H         1 <0>         0.0679
     57 H33         0.3059   -2.2572   -1.1095 H         1 <0>         0.0663
@<TRIPOS>BOND
     1    1    2 1
     2    1   30 1
     3    1   31 1
     4    1   32 1
     5    2    3 2
     6    2    4 1
     7    4    5 1
     8    4   10 1
     9    4    6 1
    10    6    7 1
    11    6   33 1
    12    6   34 1
    13    7    8 1
    14    7   35 1
    15    7   36 1
    16    8    9 1
    17    8   15 1
    18    8   10 1
    19   10   11 1
    20   10   29 1
    21   11   12 1
    22   11   37 1
    23   11   38 1
    24   12   13 1
    25   12   39 1
    26   12   40 1
    27   13   14 1
    28   13   21 1
    29   13   15 1
    30   15   16 1
    31   15   17 1
    32   17   18 1
    33   17   41 1
    34   17   42 1
    35   18   19 1
    36   18   43 1
    37   18   44 1
    38   19   20 1
    39   19   26 1
    40   19   21 1
    41   21   22 1
    42   21   28 1
    43   22   23 1
    44   22   45 1
    45   22   46 1
    46   23   24 1
    47   23   47 1
    48   23   48 1
    49   24   25 2
    50   24   26 am
    51   26   27 1
    52   27   49 1
    53   27   50 1
    54   27   51 1
    55   28   52 1
    56   28   53 1
    57   28   54 1
    58   29   55 1
    59   29   56 1
    60   29   57 1
@<TRIPOS>MOLECULE
ZINC03782599
   63    66     0     0     0
SMALL
USER_CHARGES

@<TRIPOS>ATOM
      1 C1          0.1611    1.5762    0.0269 C.3       1 <0>        -0.1519
      2 C2          0.0931    0.0477    0.0325 C.3       1 <0>        -0.0508
      3 C3         -1.3313   -0.4004    0.2938 C.3       1 <0>        -0.1037
      4 C4         -1.7878    0.2661    1.6027 C.3       1 <0>        -0.1184
      5 C5         -0.8623   -0.0918    2.7601 C.3       1 <0>        -0.0624
      6 H1         -0.9324   -1.1624    2.9522 H         1 <0>         0.0754
      7 C6          0.6001    0.2648    2.4436 C.3       1 <0>        -0.0813
      8 H2          0.6869    1.3376    2.2713 H         1 <0>         0.0894
      9 C7          0.9758   -0.5123    1.1810 C.3       1 <0>        -0.0784
     10 H3          0.7937   -1.5782    1.3175 H         1 <0>         0.0796
     11 C8          2.3865   -0.2593    0.6380 C.3       1 <0>        -0.1139
     12 C9          2.2587   -0.6506   -0.8596 C.3       1 <0>        -0.1121
     13 C10         0.7603   -0.5021   -1.2236 C.3       1 <0>        -0.1024
     14 H4          0.3366   -1.4724   -1.4826 H         1 <0>         0.0888
     15 C11         0.5943    0.4637   -2.3685 C.2       1 <0>         0.5290
     16 O1          1.4311    1.3190   -2.5666 O.2       1 <0>        -0.5313
     17 N1         -0.4841    0.3771   -3.1722 N.am      1 <0>        -0.7256
     18 C12        -0.6455    1.3160   -4.2852 C.3       1 <0>         0.1688
     19 C13         0.5406    1.1812   -5.2422 C.3       1 <0>        -0.1642
     20 C14        -1.9426    1.0020   -5.0333 C.3       1 <0>        -0.1566
     21 C15        -0.7029    2.7453   -3.7424 C.3       1 <0>        -0.1634
     22 C16         1.4910   -0.1409    3.6173 C.3       1 <0>        -0.1099
     23 C17         1.0452    0.5929    4.8861 C.3       1 <0>        -0.1296
     24 C18        -0.4081    0.2320    5.1868 C.3       1 <0>         0.1496
     25 H5         -0.4905   -0.8471    5.3165 H         1 <0>         0.0775
     26 C19        -1.2751    0.6663    4.0195 C.3       1 <0>        -0.0478
     27 C20        -2.7176    0.4002    4.3570 C.2       1 <0>        -0.0886
     28 C21        -3.1281    0.5935    5.6129 C.2       1 <0>        -0.1980
     29 C22        -2.1595    1.0710    6.6166 C.2       1 <0>         0.5485
     30 O2         -2.5462    1.6436    7.6175 O.2       1 <0>        -0.5498
     31 N2         -0.8742    0.8996    6.4004 N.am      1 <0>        -0.7086
     32 C23        -1.0875    2.1676    3.7915 C.3       1 <0>        -0.1472
     33 H6          1.1969    1.8934   -0.0944 H         1 <0>         0.0663
     34 H7         -0.4365    1.9634   -0.7984 H         1 <0>         0.0523
     35 H8         -0.2286    1.9606    0.9694 H         1 <0>         0.0663
     36 H9         -1.9757   -0.0854   -0.5270 H         1 <0>         0.0638
     37 H10        -1.3657   -1.4848    0.3982 H         1 <0>         0.0675
     38 H11        -1.7910    1.3480    1.4699 H         1 <0>         0.0726
     39 H12        -2.7988   -0.0662    1.8385 H         1 <0>         0.0652
     40 H13         2.6562    0.7918    0.7403 H         1 <0>         0.0712
     41 H14         3.1136   -0.8959    1.1422 H         1 <0>         0.0674
     42 H15         2.8610    0.0187   -1.4739 H         1 <0>         0.0837
     43 H16         2.5786   -1.6823   -1.0054 H         1 <0>         0.0665
     44 H17        -1.1533   -0.3069   -3.0138 H         1 <0>         0.3972
     45 H18         0.5816    0.1629   -5.6289 H         1 <0>         0.0528
     46 H19         0.4206    1.8798   -6.0703 H         1 <0>         0.0621
     47 H20         1.4648    1.4049   -4.7093 H         1 <0>         0.0783
     48 H21        -2.7876    1.0981   -4.3515 H         1 <0>         0.0613
     49 H22        -2.0627    1.7006   -5.8613 H         1 <0>         0.0734
     50 H23        -1.9017   -0.0162   -5.4200 H         1 <0>         0.0615
     51 H24         0.2212    2.9690   -3.2094 H         1 <0>         0.0788
     52 H25        -0.8230    3.4439   -4.5704 H         1 <0>         0.0617
     53 H26        -1.5479    2.8413   -3.0606 H         1 <0>         0.0524
     54 H27         1.4146   -1.2167    3.7752 H         1 <0>         0.0668
     55 H28         2.5257    0.1186    3.3934 H         1 <0>         0.0738
     56 H29         1.6761    0.2915    5.7222 H         1 <0>         0.0737
     57 H30         1.1295    1.6689    4.7336 H         1 <0>         0.0780
     58 H31        -3.4069    0.0593    3.5986 H         1 <0>         0.1340
     59 H32        -4.1547    0.4031    5.8893 H         1 <0>         0.1433
     60 H33        -0.2383    1.2035    7.0669 H         1 <0>         0.4036
     61 H34        -1.7067    2.4880    2.9536 H         1 <0>         0.0645
     62 H35        -1.3817    2.7110    4.6894 H         1 <0>         0.0569
     63 H36        -0.0405    2.3732    3.5690 H         1 <0>         0.0722
@<TRIPOS>BOND
     1    1    2 1
     2    1   33 1
     3    1   34 1
     4    1   35 1
     5    2    9 1
     6    2   13 1
     7    2    3 1
     8    3    4 1
     9    3   36 1
    10    3   37 1
    11    4    5 1
    12    4   38 1
    13    4   39 1
    14    5    6 1
    15    5   26 1
    16    5    7 1
    17    7    8 1
    18    7    9 1
    19    7   22 1
    20    9   10 1
    21    9   11 1
    22   11   12 1
    23   11   40 1
    24   11   41 1
    25   12   13 1
    26   12   42 1
    27   12   43 1
    28   13   14 1
    29   13   15 1
    30   15   16 2
    31   15   17 am
    32   17   18 1
    33   17   44 1
    34   18   19 1
    35   18   20 1
    36   18   21 1
    37   19   45 1
    38   19   46 1
    39   19   47 1
    40   20   48 1
    41   20   49 1
    42   20   50 1
    43   21   51 1
    44   21   52 1
    45   21   53 1
    46   22   23 1
    47   22   54 1
    48   22   55 1
    49   23   24 1
    50   23   56 1
    51   23   57 1
    52   24   25 1
    53   24   31 1
    54   24   26 1
    55   26   27 1
    56   26   32 1
    57   27   28 2
    58   27   58 1
    59   28   29 1
    60   28   59 1
    61   29   30 2
    62   29   31 am
    63   31   60 1
    64   32   61 1
    65   32   62 1
    66   32   63 1
@<TRIPOS>MOLECULE
ZINC04031199
   50    53     0     0     0
SMALL
USER_CHARGES
10,13-dimethyl-3-oxo-1,2,6,7,8,9,11,12,14,15,16,17-dodecahydrocyclopenta[a]phenanthrene-17-carboxylic acid
@<TRIPOS>ATOM
      1 C1         -2.4399   -0.5455    2.0212 C.3       1 <0>        -0.1332
      2 C2         -2.2137    0.8733    1.4950 C.3       1 <0>        -0.0284
      3 C3         -0.7363    1.1656    1.4754 C.3       1 <0>        -0.1131
      4 C4         -0.0176    0.4283    0.3497 C.3       1 <0>        -0.1130
      5 C5         -0.6145    0.8676   -0.9927 C.3       1 <0>        -0.0647
      6 H1         -0.5256    1.9489   -1.0976 H         1 <0>         0.0757
      7 C6         -2.0874    0.4676   -1.0249 C.3       1 <0>        -0.0679
      8 H2         -2.1585   -0.6176   -0.9520 H         1 <0>         0.0710
      9 C7         -2.8617    1.0842    0.1163 C.3       1 <0>        -0.0733
     10 H3         -3.8702    0.6710    0.1290 H         1 <0>         0.0656
     11 C8         -2.9470    2.6185    0.0087 C.3       1 <0>        -0.1124
     12 C9         -3.3527    3.0573    1.4347 C.3       1 <0>        -0.1169
     13 C10        -2.9193    1.9241    2.3834 C.3       1 <0>        -0.1285
     14 H4         -3.7915    1.4937    2.8756 H         1 <0>         0.0643
     15 C11        -1.9527    2.4515    3.4123 C.2       1 <0>         0.4735
     16 O1         -1.3028    3.4429    3.1784 O.co2     1 <0>        -0.6396
     17 C12        -2.7106    0.9151   -2.3514 C.3       1 <0>        -0.1141
     18 C13        -2.0444    0.1595   -3.5030 C.3       1 <0>        -0.0956
     19 C14        -0.5454    0.3858   -3.4281 C.2       1 <0>        -0.0039
     20 C15         0.0817    0.7676   -4.5399 C.2       1 <0>        -0.2569
     21 C16         1.5325    0.9850   -4.5257 C.2       1 <0>         0.3908
     22 O2          2.0834    1.6764   -5.3567 O.2       1 <0>        -0.4658
     23 C17         2.3069    0.2991   -3.4170 C.3       1 <0>        -0.1576
     24 C18         1.5972    0.6138   -2.1009 C.3       1 <0>        -0.1060
     25 C19         0.1601    0.1739   -2.1207 C.3       1 <0>        -0.0314
     26 C20         0.1617   -1.3296   -1.8371 C.3       1 <0>        -0.1483
     27 H5         -2.0053   -1.2642    1.3265 H         1 <0>         0.0450
     28 H6         -1.9658   -0.6510    2.9970 H         1 <0>         0.0629
     29 H7         -3.5097   -0.7320    2.1149 H         1 <0>         0.0443
     30 H8         -0.2808    0.8977    2.4288 H         1 <0>         0.0677
     31 H9         -0.6393    2.2402    1.3206 H         1 <0>         0.0741
     32 H10        -0.1498   -0.6465    0.4741 H         1 <0>         0.0643
     33 H11         1.0448    0.6708    0.3740 H         1 <0>         0.0601
     34 H12        -1.9783    3.0389   -0.2614 H         1 <0>         0.0640
     35 H13        -3.7067    2.9109   -0.7162 H         1 <0>         0.0539
     36 H14        -2.8414    3.9826    1.7002 H         1 <0>         0.0780
     37 H15        -4.4321    3.1986    1.4890 H         1 <0>         0.0457
     38 H16        -3.7787    0.6979   -2.3433 H         1 <0>         0.0683
     39 H17        -2.5575    1.9863   -2.4823 H         1 <0>         0.0681
     40 H18        -2.2586   -0.9056   -3.4142 H         1 <0>         0.0828
     41 H19        -2.4238    0.5335   -4.4540 H         1 <0>         0.0743
     42 H20        -0.4778    0.9167   -5.4515 H         1 <0>         0.1309
     43 H21         2.3230   -0.6870   -3.5824 H         1 <0>         0.0888
     44 H22         3.3281    0.6791   -3.3885 H         1 <0>         0.0891
     45 H23         2.1172    0.1084   -1.2872 H         1 <0>         0.0863
     46 H24         1.6290    1.6896   -1.9286 H         1 <0>         0.0701
     47 H25        -0.8649   -1.6945   -1.8054 H         1 <0>         0.0615
     48 H26         0.7072   -1.8475   -2.6259 H         1 <0>         0.0526
     49 H27         0.6440   -1.5178   -0.8779 H         1 <0>         0.0717
     50 O3         -1.8139    1.8201    4.5886 O.co2     1 <0>        -0.7748
@<TRIPOS>BOND
     1    1    2 1
     2    1   27 1
     3    1   28 1
     4    1   29 1
     5    2    9 1
     6    2   13 1
     7    2    3 1
     8    3    4 1
     9    3   30 1
    10    3   31 1
    11    4    5 1
    12    4   32 1
    13    4   33 1
    14    5    6 1
    15    5   25 1
    16    5    7 1
    17    7    8 1
    18    7    9 1
    19    7   17 1
    20    9   10 1
    21    9   11 1
    22   11   12 1
    23   11   34 1
    24   11   35 1
    25   12   13 1
    26   12   36 1
    27   12   37 1
    28   13   14 1
    29   13   15 1
    30   15   16 2
    31   15   50 1
    32   17   18 1
    33   17   38 1
    34   17   39 1
    35   18   19 1
    36   18   40 1
    37   18   41 1
    38   19   25 1
    39   19   20 2
    40   20   21 1
    41   20   42 1
    42   21   22 2
    43   21   23 1
    44   23   24 1
    45   23   43 1
    46   23   44 1
    47   24   25 1
    48   24   45 1
    49   24   46 1
    50   25   26 1
    51   26   47 1
    52   26   48 1
    53   26   49 1
@<TRIPOS>MOLECULE
ZINC04031200
   50    53     0     0     0
SMALL
USER_CHARGES
10,13-dimethyl-3-oxo-1,2,6,7,8,9,11,12,14,15,16,17-dodecahydrocyclopenta[a]phenanthrene-17-carboxylic acid
@<TRIPOS>ATOM
      1 C1          0.9247    0.7595    2.0464 C.3       1 <0>        -0.1460
      2 C2          1.2592    0.2588    0.6403 C.3       1 <0>        -0.0308
      3 C3          2.6088   -0.4202    0.6270 C.3       1 <0>        -0.0941
      4 C4          3.6738    0.5345    0.0513 C.3       1 <0>        -0.1067
      5 C5          3.3867    1.9367    0.5654 C.3       1 <0>        -0.0760
      6 H1          3.1612    1.8667    1.6385 H         1 <0>         0.0779
      7 C6          2.1547    2.4928   -0.1611 C.3       1 <0>        -0.0662
      8 H2          2.4704    2.8567   -1.1574 H         1 <0>         0.0612
      9 C7          1.1811    1.3857   -0.4075 C.3       1 <0>        -0.0761
     10 H3          1.4064    0.9461   -1.4016 H         1 <0>         0.0611
     11 C8         -0.3123    1.7419   -0.3926 C.3       1 <0>        -0.1148
     12 C9         -1.0048    0.3588   -0.2539 C.3       1 <0>        -0.1043
     13 C10         0.0910   -0.6419    0.1876 C.3       1 <0>        -0.1270
     14 H4          0.4022   -1.2645   -0.6434 H         1 <0>         0.0646
     15 C11        -0.3911   -1.4750    1.3434 C.2       1 <0>         0.4720
     16 O1          0.4016   -1.9218    2.1382 O.co2     1 <0>        -0.6379
     17 C12         1.6498    3.7090    0.6003 C.3       1 <0>        -0.1097
     18 C13         2.7310    4.7959    0.4763 C.3       1 <0>        -0.0985
     19 C14         4.0698    4.2535    0.9390 C.2       1 <0>        -0.0021
     20 C15         4.7616    4.9961    1.8013 C.2       1 <0>        -0.2563
     21 C16         6.0814    4.5799    2.2794 C.2       1 <0>         0.3904
     22 O2          6.6151    5.1286    3.2240 O.2       1 <0>        -0.4682
     23 C17         6.7673    3.4536    1.5345 C.3       1 <0>        -0.1568
     24 C18         5.7305    2.3765    1.2367 C.3       1 <0>        -0.1088
     25 C19         4.5517    2.9156    0.4385 C.3       1 <0>        -0.0268
     26 C20         4.9828    3.0452   -1.0200 C.3       1 <0>        -0.1399
     27 H5          0.9510   -0.0763    2.7456 H         1 <0>         0.0839
     28 H6          1.6560    1.5092    2.3486 H         1 <0>         0.0378
     29 H7         -0.0712    1.2025    2.0470 H         1 <0>         0.0458
     30 H8          2.8900   -0.7060    1.6439 H         1 <0>         0.0669
     31 H9          2.5625   -1.3215    0.0091 H         1 <0>         0.0564
     32 H10         3.6234    0.5181   -1.0383 H         1 <0>         0.0590
     33 H11         4.6641    0.2133    0.3747 H         1 <0>         0.0595
     34 H12        -0.5999    2.2116   -1.3371 H         1 <0>         0.0509
     35 H13        -0.5643    2.3911    0.4410 H         1 <0>         0.0638
     36 H14        -1.4238    0.0539   -1.2125 H         1 <0>         0.0481
     37 H15        -1.7902    0.4094    0.4994 H         1 <0>         0.0752
     38 H16         0.7231    4.0700    0.1547 H         1 <0>         0.0727
     39 H17         1.4943    3.4704    1.6488 H         1 <0>         0.0711
     40 H18         2.8048    5.1108   -0.5643 H         1 <0>         0.0818
     41 H19         2.4521    5.6500    1.0933 H         1 <0>         0.0740
     42 H20         4.3438    5.9346    2.1446 H         1 <0>         0.1290
     43 H21         7.1557    3.8052    0.6827 H         1 <0>         0.0895
     44 H22         7.5637    3.0361    2.1568 H         1 <0>         0.0906
     45 H23         6.2032    1.5792    0.6612 H         1 <0>         0.0822
     46 H24         5.3601    1.9636    2.1742 H         1 <0>         0.0719
     47 H25         5.7891    3.7746   -1.0972 H         1 <0>         0.0538
     48 H26         5.3315    2.0784   -1.3831 H         1 <0>         0.0665
     49 H27         4.1356    3.3751   -1.6214 H         1 <0>         0.0629
     50 O3         -1.7021   -1.7221    1.4918 O.co2     1 <0>        -0.7729
@<TRIPOS>BOND
     1    1    2 1
     2    1   27 1
     3    1   28 1
     4    1   29 1
     5    2    9 1
     6    2   13 1
     7    2    3 1
     8    3    4 1
     9    3   30 1
    10    3   31 1
    11    4    5 1
    12    4   32 1
    13    4   33 1
    14    5    6 1
    15    5   25 1
    16    5    7 1
    17    7    8 1
    18    7    9 1
    19    7   17 1
    20    9   10 1
    21    9   11 1
    22   11   12 1
    23   11   34 1
    24   11   35 1
    25   12   13 1
    26   12   36 1
    27   12   37 1
    28   13   14 1
    29   13   15 1
    30   15   16 2
    31   15   50 1
    32   17   18 1
    33   17   38 1
    34   17   39 1
    35   18   19 1
    36   18   40 1
    37   18   41 1
    38   19   25 1
    39   19   20 2
    40   20   21 1
    41   20   42 1
    42   21   22 2
    43   21   23 1
    44   23   24 1
    45   23   43 1
    46   23   44 1
    47   24   25 1
    48   24   45 1
    49   24   46 1
    50   25   26 1
    51   26   47 1
    52   26   48 1
    53   26   49 1
@<TRIPOS>MOLECULE
ZINC04031201
   50    53     0     0     0
SMALL
USER_CHARGES
10,13-dimethyl-3-oxo-1,2,6,7,8,9,11,12,14,15,16,17-dodecahydrocyclopenta[a]phenanthrene-17-carboxylic acid
@<TRIPOS>ATOM
      1 C1          2.7023    4.6705   -1.1613 C.3       1 <0>        -0.1463
      2 C2          2.6551    3.6470    0.0075 C.3       1 <0>        -0.0280
      3 C3          3.7470    2.6540   -0.2880 C.3       1 <0>        -0.0663
      4 C4          4.2727    1.9157    0.9386 C.3       1 <0>        -0.1030
      5 C5          4.7436    2.9617    1.9529 C.3       1 <0>        -0.0711
      6 H1          5.4209    3.6605    1.4549 H         1 <0>         0.0669
      7 C6          3.5117    3.7229    2.4367 C.3       1 <0>        -0.0607
      8 H2          3.8324    4.4772    3.1737 H         1 <0>         0.0569
      9 C7          2.8429    4.4662    1.2866 C.3       1 <0>        -0.0675
     10 H3          3.4181    5.3903    1.0588 H         1 <0>         0.0638
     11 C8          1.4008    4.8372    1.7248 C.3       1 <0>        -0.1216
     12 C9          0.5339    3.6505    1.2592 C.3       1 <0>        -0.1008
     13 C10         1.2347    3.0878    0.0069 C.3       1 <0>        -0.1203
     14 H4          0.7059    3.4632   -0.8859 H         1 <0>         0.0606
     15 C11         1.1765    1.5884   -0.0006 C.2       1 <0>         0.4668
     16 O1          2.1986    0.9442   -0.0139 O.co2     1 <0>        -0.6207
     17 C12         2.5389    2.7724    3.1293 C.3       1 <0>        -0.1243
     18 C13         3.2103    2.1555    4.3607 C.3       1 <0>        -0.0990
     19 C14         4.5091    1.4980    3.9348 C.2       1 <0>         0.0049
     20 C15         4.7259    0.2411    4.3206 C.2       1 <0>        -0.2574
     21 C16         5.9854   -0.4252    3.9801 C.2       1 <0>         0.3922
     22 O2          6.0880   -1.6352    3.9927 O.2       1 <0>        -0.4683
     23 C17         7.1531    0.4646    3.6070 C.3       1 <0>        -0.1556
     24 C18         6.6603    1.4960    2.5947 C.3       1 <0>        -0.1110
     25 C19         5.4777    2.2939    3.1155 C.3       1 <0>        -0.0253
     26 C20         6.0512    3.4006    4.0108 C.3       1 <0>        -0.1423
     27 H5          1.9488    5.4413   -0.9998 H         1 <0>         0.0457
     28 H6          3.6897    5.1303   -1.2019 H         1 <0>         0.0437
     29 H7          2.5015    4.1574   -2.1018 H         1 <0>         0.0483
     30 H8          4.5964    3.2177   -0.7187 H         1 <0>         0.0099
     31 H9          3.4432    1.9461   -1.0540 H         1 <0>         0.0830
     32 H10         5.1108    1.2859    0.6327 H         1 <0>         0.0429
     33 H11         3.5033    1.2874    1.3753 H         1 <0>         0.1009
     34 H12         1.0763    5.7581    1.2309 H         1 <0>         0.0532
     35 H13         1.3402    4.9665    2.8048 H         1 <0>         0.0617
     36 H14        -0.4675    3.9999    0.9988 H         1 <0>         0.0510
     37 H15         0.4681    2.8893    2.0332 H         1 <0>         0.0685
     38 H16         1.6555    3.3217    3.4625 H         1 <0>         0.0698
     39 H17         2.2339    1.9773    2.4551 H         1 <0>         0.0906
     40 H18         2.5481    1.4063    4.7963 H         1 <0>         0.0728
     41 H19         3.4090    2.9324    5.0974 H         1 <0>         0.0776
     42 H20         3.9519   -0.2980    4.8447 H         1 <0>         0.1309
     43 H21         7.8798   -0.0910    3.2029 H         1 <0>         0.0788
     44 H22         7.5381    0.9640    4.4959 H         1 <0>         0.0937
     45 H23         6.3889    0.9817    1.6775 H         1 <0>         0.0804
     46 H24         7.4784    2.1885    2.3773 H         1 <0>         0.0758
     47 H25         5.2383    4.0224    4.3858 H         1 <0>         0.0612
     48 H26         6.5814    2.9506    4.8502 H         1 <0>         0.0535
     49 H27         6.7414    4.0148    3.4323 H         1 <0>         0.0604
     50 O3         -0.0110    0.9628    0.0073 O.co2     1 <0>        -0.7768
@<TRIPOS>BOND
     1    1    2 1
     2    1   27 1
     3    1   28 1
     4    1   29 1
     5    2    9 1
     6    2   13 1
     7    2    3 1
     8    3    4 1
     9    3   30 1
    10    3   31 1
    11    4    5 1
    12    4   32 1
    13    4   33 1
    14    5    6 1
    15    5   25 1
    16    5    7 1
    17    7    8 1
    18    7    9 1
    19    7   17 1
    20    9   10 1
    21    9   11 1
    22   11   12 1
    23   11   34 1
    24   11   35 1
    25   12   13 1
    26   12   36 1
    27   12   37 1
    28   13   14 1
    29   13   15 1
    30   15   16 2
    31   15   50 1
    32   17   18 1
    33   17   38 1
    34   17   39 1
    35   18   19 1
    36   18   40 1
    37   18   41 1
    38   19   25 1
    39   19   20 2
    40   20   21 1
    41   20   42 1
    42   21   22 2
    43   21   23 1
    44   23   24 1
    45   23   43 1
    46   23   44 1
    47   24   25 1
    48   24   45 1
    49   24   46 1
    50   25   26 1
    51   26   47 1
    52   26   48 1
    53   26   49 1
@<TRIPOS>MOLECULE
ZINC04031202
   50    53     0     0     0
SMALL
USER_CHARGES
10,13-dimethyl-3-oxo-1,2,6,7,8,9,11,12,14,15,16,17-dodecahydrocyclopenta[a]phenanthrene-17-carboxylic acid
@<TRIPOS>ATOM
      1 C1          2.2221   -0.1477   -2.6392 C.3       1 <0>        -0.1513
      2 C2          1.0751    0.7911   -3.0054 C.3       1 <0>        -0.0305
      3 C3          0.6136    1.5620   -1.7936 C.3       1 <0>        -0.0972
      4 C4         -0.1073    0.6048   -0.8286 C.3       1 <0>        -0.1137
      5 C5         -1.2964   -0.0588   -1.5096 C.3       1 <0>        -0.0658
      6 H1         -1.9537    0.7528   -1.8665 H         1 <0>         0.0683
      7 C6         -0.8575   -0.8521   -2.7465 C.3       1 <0>        -0.0560
      8 H2         -1.7745   -1.1984   -3.2715 H         1 <0>         0.0609
      9 C7         -0.1205    0.0762   -3.6638 C.3       1 <0>        -0.0822
     10 H3         -0.8433    0.8620   -3.9982 H         1 <0>         0.0585
     11 C8          0.5211   -0.4940   -4.9347 C.3       1 <0>        -0.1144
     12 C9          1.4154    0.6880   -5.4108 C.3       1 <0>        -0.1037
     13 C10         1.5634    1.6425   -4.1961 C.3       1 <0>        -0.1275
     14 H4          0.9337    2.5163   -4.3080 H         1 <0>         0.0644
     15 C11         3.0041    2.0215   -3.9944 C.2       1 <0>         0.4730
     16 O1          3.4003    2.3261   -2.8943 O.co2     1 <0>        -0.6385
     17 C12        -0.0718   -2.0892   -2.3331 C.3       1 <0>        -0.1165
     18 C13        -1.0308   -3.0319   -1.5871 C.3       1 <0>        -0.1021
     19 C14        -1.5489   -2.2814   -0.3734 C.2       1 <0>         0.0028
     20 C15        -1.4839   -2.9012    0.8045 C.2       1 <0>        -0.2577
     21 C16        -2.0199   -2.2813    2.0177 C.2       1 <0>         0.3892
     22 O2         -1.7679   -2.7322    3.1198 O.2       1 <0>        -0.4696
     23 C17        -2.8964   -1.0575    1.8530 C.3       1 <0>        -0.1579
     24 C18        -2.2791   -0.1687    0.7764 C.3       1 <0>        -0.1130
     25 C19        -2.1161   -0.9075   -0.5453 C.3       1 <0>        -0.0267
     26 C20        -3.5204   -1.0591   -1.1471 C.3       1 <0>        -0.1434
     27 H5          2.5050   -0.7340   -3.5134 H         1 <0>         0.0464
     28 H6          3.0774    0.4378   -2.3021 H         1 <0>         0.0851
     29 H7          1.9027   -0.8173   -1.8405 H         1 <0>         0.0426
     30 H8          1.4734    2.0073   -1.2852 H         1 <0>         0.0776
     31 H9         -0.0709    2.3587   -2.0955 H         1 <0>         0.0501
     32 H10         0.5806   -0.1516   -0.4650 H         1 <0>         0.0626
     33 H11        -0.4647    1.1949    0.0204 H         1 <0>         0.0585
     34 H12         1.1119   -1.3799   -4.7314 H         1 <0>         0.0644
     35 H13        -0.2448   -0.7104   -5.6834 H         1 <0>         0.0506
     36 H14         2.3917    0.3184   -5.7188 H         1 <0>         0.0767
     37 H15         0.9312    1.2100   -6.2357 H         1 <0>         0.0478
     38 H16         0.3291   -2.5999   -3.2032 H         1 <0>         0.0728
     39 H17         0.7233   -1.8344   -1.6345 H         1 <0>         0.0794
     40 H18        -1.8550   -3.3046   -2.2399 H         1 <0>         0.0824
     41 H19        -0.4894   -3.9201   -1.2693 H         1 <0>         0.0756
     42 H20        -1.0232   -3.8798    0.8630 H         1 <0>         0.1300
     43 H21        -3.8172   -1.3407    1.5847 H         1 <0>         0.0891
     44 H22        -2.9392   -0.5092    2.7986 H         1 <0>         0.0907
     45 H23        -1.3006    0.1599    1.1258 H         1 <0>         0.0787
     46 H24        -2.9172    0.6998    0.6184 H         1 <0>         0.0811
     47 H25        -3.4484   -1.5475   -2.1189 H         1 <0>         0.0615
     48 H26        -4.1376   -1.6630   -0.4818 H         1 <0>         0.0552
     49 H27        -3.9722   -0.0745   -1.2678 H         1 <0>         0.0640
     50 O3          3.8503    2.0214   -5.0363 O.co2     1 <0>        -0.7724
@<TRIPOS>BOND
     1    1    2 1
     2    1   27 1
     3    1   28 1
     4    1   29 1
     5    2    9 1
     6    2   13 1
     7    2    3 1
     8    3    4 1
     9    3   30 1
    10    3   31 1
    11    4    5 1
    12    4   32 1
    13    4   33 1
    14    5    6 1
    15    5   25 1
    16    5    7 1
    17    7    8 1
    18    7    9 1
    19    7   17 1
    20    9   10 1
    21    9   11 1
    22   11   12 1
    23   11   34 1
    24   11   35 1
    25   12   13 1
    26   12   36 1
    27   12   37 1
    28   13   14 1
    29   13   15 1
    30   15   16 2
    31   15   50 1
    32   17   18 1
    33   17   38 1
    34   17   39 1
    35   18   19 1
    36   18   40 1
    37   18   41 1
    38   19   25 1
    39   19   20 2
    40   20   21 1
    41   20   42 1
    42   21   22 2
    43   21   23 1
    44   23   24 1
    45   23   43 1
    46   23   44 1
    47   24   25 1
    48   24   45 1
    49   24   46 1
    50   25   26 1
    51   26   47 1
    52   26   48 1
    53   26   49 1
@<TRIPOS>MOLECULE
ZINC34212553
   51    54     0     0     0
SMALL
USER_CHARGES

@<TRIPOS>ATOM
      1 C1         -0.0186    1.5229    0.0104 C.3       1 <0>        -0.1333
      2 C2          0.0021   -0.0041    0.0020 C.3       1 <0>        -0.0242
      3 C3         -1.3877   -0.5807    0.0009 C.3       1 <0>        -0.0969
      4 C4         -2.0141   -0.5562    1.4002 C.3       1 <0>        -0.1017
      5 C5         -1.1754    0.1958    2.4158 C.3       1 <0>        -0.0686
      6 H1         -1.1421    1.2574    2.1469 H         1 <0>         0.0858
      7 C6          0.2471   -0.3539    2.5019 C.3       1 <0>        -0.0655
      8 H2          0.1949   -1.3362    3.0130 H         1 <0>         0.0586
      9 C7          0.8346   -0.6067    1.1524 C.3       1 <0>        -0.0820
     10 H3          0.8803   -1.7089    1.0010 H         1 <0>         0.0565
     11 C8          2.2339   -0.0550    0.8506 C.3       1 <0>        -0.1117
     12 C9          2.3230   -0.1706   -0.6977 C.3       1 <0>        -0.1012
     13 C10         0.8788   -0.4232   -1.2014 C.3       1 <0>        -0.1536
     14 H4          0.7215   -1.4708   -1.4238 H         1 <0>         0.0585
     15 C11         0.5696    0.4487   -2.3848 C.2       1 <0>         0.5017
     16 O1          1.4361    0.6884   -3.2084 O.co2     1 <0>        -0.7062
     17 O2         -0.5478    0.9167   -2.5218 O.co2     1 <0>        -0.6930
     18 C12         1.0887    0.5626    3.3869 C.3       1 <0>        -0.1051
     19 C13         0.4906    0.5573    4.8016 C.3       1 <0>        -0.1252
     20 C14        -0.7656   -0.3005    4.8307 C.3       1 <0>         0.1478
     21 H5         -0.4852   -1.3308    4.5849 H         1 <0>         0.0713
     22 C15        -1.8006    0.1700    3.8132 C.3       1 <0>        -0.0648
     23 C16        -3.0002   -0.7734    3.8689 C.3       1 <0>        -0.1150
     24 C17        -3.6721   -0.6778    5.2389 C.3       1 <0>        -0.1358
     25 C18        -2.6729   -0.5408    6.3477 C.2       1 <0>         0.5234
     26 O3         -3.0766   -0.6096    7.4902 O.2       1 <0>        -0.5696
     27 N1         -1.3641   -0.3455    6.1591 N.am      1 <0>        -0.7143
     28 C19        -2.2581    1.5937    4.1507 C.3       1 <0>        -0.1435
     29 H6          0.9653    1.9011   -0.2670 H         1 <0>         0.0433
     30 H7         -0.7600    1.8801   -0.7043 H         1 <0>         0.0816
     31 H8         -0.2759    1.8773    1.0086 H         1 <0>         0.0351
     32 H9         -2.0234   -0.0115   -0.6921 H         1 <0>         0.0752
     33 H10        -1.3545   -1.6174   -0.3646 H         1 <0>         0.0469
     34 H11        -3.0082   -0.0940    1.3367 H         1 <0>         0.0565
     35 H12        -2.1558   -1.5904    1.7427 H         1 <0>         0.0520
     36 H13         2.3407    0.9754    1.1751 H         1 <0>         0.0630
     37 H14         2.9977   -0.6804    1.3189 H         1 <0>         0.0492
     38 H15         2.7095    0.7565   -1.1192 H         1 <0>         0.0657
     39 H16         2.9660   -1.0057   -0.9725 H         1 <0>         0.0474
     40 H17         2.1144    0.1971    3.4232 H         1 <0>         0.0688
     41 H18         1.0729    1.5759    2.9879 H         1 <0>         0.0692
     42 H19         1.2288    0.1339    5.4934 H         1 <0>         0.0634
     43 H20         0.2714    1.5755    5.1150 H         1 <0>         0.0703
     44 H21        -3.7212   -0.4963    3.0955 H         1 <0>         0.0844
     45 H22        -2.6683   -1.7996    3.6968 H         1 <0>         0.0714
     46 H23        -4.3546    0.1728    5.2565 H         1 <0>         0.0996
     47 H24        -4.2606   -1.5862    5.4073 H         1 <0>         0.0960
     48 H25        -0.7905   -0.2328    6.9296 H         1 <0>         0.3964
     49 H26        -2.9916    1.9236    3.4150 H         1 <0>         0.0622
     50 H27        -2.7085    1.6049    5.1432 H         1 <0>         0.0498
     51 H28        -1.3994    2.2649    4.1338 H         1 <0>         0.0603
@<TRIPOS>BOND
     1    1    2 1
     2    1   29 1
     3    1   30 1
     4    1   31 1
     5    2    9 1
     6    2   13 1
     7    2    3 1
     8    3    4 1
     9    3   32 1
    10    3   33 1
    11    4    5 1
    12    4   34 1
    13    4   35 1
    14    5    6 1
    15    5   22 1
    16    5    7 1
    17    7    8 1
    18    7    9 1
    19    7   18 1
    20    9   10 1
    21    9   11 1
    22   11   12 1
    23   11   36 1
    24   11   37 1
    25   12   13 1
    26   12   38 1
    27   12   39 1
    28   13   14 1
    29   13   15 1
    30   15   16 2
    31   15   17 1
    32   18   19 1
    33   18   40 1
    34   18   41 1
    35   19   20 1
    36   19   42 1
    37   19   43 1
    38   20   21 1
    39   20   27 1
    40   20   22 1
    41   22   23 1
    42   22   28 1
    43   23   24 1
    44   23   44 1
    45   23   45 1
    46   24   25 1
    47   24   46 1
    48   24   47 1
    49   25   26 2
    50   25   27 am
    51   27   48 1
    52   28   49 1
    53   28   50 1
    54   28   51 1
@<TRIPOS>MOLECULE
ZINC34212555
   51    54     0     0     0
SMALL
USER_CHARGES

@<TRIPOS>ATOM
      1 C1         -0.0186    1.5220    0.0104 C.3       1 <0>        -0.1459
      2 C2          0.0021   -0.0041    0.0020 C.3       1 <0>        -0.0254
      3 C3         -1.4022   -0.5593    0.0497 C.3       1 <0>        -0.0985
      4 C4         -2.0134   -0.2212    1.4247 C.3       1 <0>        -0.1055
      5 C5         -1.1954   -0.8445    2.5429 C.3       1 <0>        -0.0640
      6 H1         -1.1855   -1.9354    2.3801 H         1 <0>         0.0651
      7 C6          0.2644   -0.3651    2.5106 C.3       1 <0>        -0.0603
      8 H2          0.8306   -1.0007    3.2254 H         1 <0>         0.0569
      9 C7          0.8331   -0.6088    1.1503 C.3       1 <0>        -0.0838
     10 H3          0.8639   -1.7159    0.9941 H         1 <0>         0.0554
     11 C8          2.2378   -0.0877    0.8269 C.3       1 <0>        -0.1126
     12 C9          2.3120   -0.2750   -0.7164 C.3       1 <0>        -0.1013
     13 C10         0.8503   -0.4382   -1.2095 C.3       1 <0>        -0.1530
     14 H4          0.6386   -1.4713   -1.4597 H         1 <0>         0.0582
     15 C11         0.5831    0.4741   -2.3747 C.2       1 <0>         0.5020
     16 O1          1.4590    0.6870   -3.1956 O.co2     1 <0>        -0.7050
     17 O2         -0.5095    1.0009   -2.4984 O.co2     1 <0>        -0.6919
     18 C12         0.3506    1.0674    3.0135 C.3       1 <0>        -0.1104
     19 C13        -0.0001    1.0924    4.5090 C.3       1 <0>        -0.1287
     20 C14        -0.6732   -0.2159    4.9040 C.3       1 <0>         0.1494
     21 H5          0.0806   -1.0110    4.8904 H         1 <0>         0.0707
     22 C15        -1.7850   -0.5963    3.9280 C.3       1 <0>        -0.0576
     23 C16        -2.4300   -1.8971    4.4292 C.3       1 <0>        -0.1162
     24 C17        -3.1099   -1.6662    5.7750 C.3       1 <0>        -0.1343
     25 C18        -2.2754   -0.8021    6.6726 C.2       1 <0>         0.5234
     26 O3         -2.6036   -0.7005    7.8360 O.2       1 <0>        -0.5687
     27 N1         -1.1921   -0.1390    6.2638 N.am      1 <0>        -0.7133
     28 C19        -2.8442    0.5029    3.8880 C.3       1 <0>        -0.1421
     29 H6          0.9873    1.9000   -0.1721 H         1 <0>         0.0401
     30 H7         -0.6888    1.8806   -0.7708 H         1 <0>         0.0919
     31 H8         -0.3691    1.8753    0.9802 H         1 <0>         0.0380
     32 H9         -2.0122   -0.1080   -0.7353 H         1 <0>         0.0770
     33 H10        -1.3838   -1.6424   -0.0819 H         1 <0>         0.0462
     34 H11        -2.0537    0.8589    1.5269 H         1 <0>         0.0674
     35 H12        -3.0283   -0.6256    1.4469 H         1 <0>         0.0532
     36 H13         2.3599    0.9533    1.1052 H         1 <0>         0.0630
     37 H14         2.9944   -0.7042    1.3180 H         1 <0>         0.0487
     38 H15         2.7693    0.5985   -1.1776 H         1 <0>         0.0674
     39 H16         2.8862   -1.1707   -0.9533 H         1 <0>         0.0463
     40 H17         1.3572    1.4577    2.8735 H         1 <0>         0.0692
     41 H18        -0.3691    1.7027    2.4974 H         1 <0>         0.0794
     42 H19         0.9224    1.2135    5.0852 H         1 <0>         0.0633
     43 H20        -0.6549    1.9368    4.7172 H         1 <0>         0.0697
     44 H21        -3.1662   -2.2343    3.6959 H         1 <0>         0.0791
     45 H22        -1.6556   -2.6607    4.5321 H         1 <0>         0.0685
     46 H23        -4.0882   -1.2095    5.6306 H         1 <0>         0.1007
     47 H24        -3.2591   -2.6354    6.2667 H         1 <0>         0.0955
     48 H25        -0.7254    0.4246    6.9000 H         1 <0>         0.3968
     49 H26        -3.6492    0.2075    3.2151 H         1 <0>         0.0643
     50 H27        -3.2459    0.6571    4.8895 H         1 <0>         0.0484
     51 H28        -2.3935    1.4289    3.5308 H         1 <0>         0.0634
@<TRIPOS>BOND
     1    1    2 1
     2    1   29 1
     3    1   30 1
     4    1   31 1
     5    2    9 1
     6    2   13 1
     7    2    3 1
     8    3    4 1
     9    3   32 1
    10    3   33 1
    11    4    5 1
    12    4   34 1
    13    4   35 1
    14    5    6 1
    15    5   22 1
    16    5    7 1
    17    7    8 1
    18    7    9 1
    19    7   18 1
    20    9   10 1
    21    9   11 1
    22   11   12 1
    23   11   36 1
    24   11   37 1
    25   12   13 1
    26   12   38 1
    27   12   39 1
    28   13   14 1
    29   13   15 1
    30   15   16 2
    31   15   17 1
    32   18   19 1
    33   18   40 1
    34   18   41 1
    35   19   20 1
    36   19   42 1
    37   19   43 1
    38   20   21 1
    39   20   27 1
    40   20   22 1
    41   22   23 1
    42   22   28 1
    43   23   24 1
    44   23   44 1
    45   23   45 1
    46   24   25 1
    47   24   46 1
    48   24   47 1
    49   25   26 2
    50   25   27 am
    51   27   48 1
    52   28   49 1
    53   28   50 1
    54   28   51 1
@<TRIPOS>MOLECULE
ZINC06824769
   53    57     0     0     0
SMALL
USER_CHARGES
methylBLAHone
@<TRIPOS>ATOM
      1 C1          1.5709    0.9813    2.3457 C.3       1 <0>        -0.1387
      2 C2          2.0903    0.8464    0.9064 C.3       1 <0>        -0.0410
      3 C3          3.5961    0.9087    0.9154 C.3       1 <0>        -0.1056
      4 C4          4.0806    2.2893    0.4316 C.3       1 <0>        -0.1090
      5 C5          3.2066    3.3587    1.0637 C.3       1 <0>        -0.0782
      6 H1          3.1078    3.1618    2.1310 H         1 <0>         0.0783
      7 C6          1.8132    3.3205    0.4100 C.3       1 <0>        -0.0735
      8 H2          1.8841    3.9284   -0.5152 H         1 <0>         0.0653
      9 C7          1.4708    1.9300   -0.0016 C.3       1 <0>        -0.0698
     10 H3          1.8432    1.7715   -1.0338 H         1 <0>         0.0710
     11 C8         -0.0190    1.5501    0.0106 C.3       1 <0>        -0.1164
     12 C9          0.0021   -0.0041    0.0020 C.3       1 <0>        -0.1399
     13 C10         1.4550   -0.4150    0.3233 C.3       1 <0>         0.1162
     14 C11         2.1509   -0.9057   -0.9564 C.3       1 <0>        -0.1452
     15 C12         1.6421   -2.3775   -1.0036 C.3       1 <0>        -0.1575
     16 C13         1.5696   -2.7417    0.4962 C.3       1 <0>         0.0476
     17 O1          1.4797   -1.5121    1.2350 O.3       1 <0>        -0.3628
     18 C14         0.8576    4.0524    1.3380 C.3       1 <0>        -0.1094
     19 C15         1.2503    5.5386    1.3189 C.3       1 <0>        -0.0993
     20 C16         2.7377    5.7114    1.5528 C.2       1 <0>        -0.0201
     21 C17         3.1134    6.7137    2.3497 C.2       1 <0>        -0.2471
     22 C18         4.5283    6.9941    2.5986 C.2       1 <0>         0.3853
     23 O2          4.8727    7.7253    3.5079 O.2       1 <0>        -0.4613
     24 C19         5.5447    6.3445    1.6836 C.3       1 <0>        -0.1572
     25 C20         5.1277    4.8925    1.4677 C.3       1 <0>        -0.1101
     26 C21         3.7274    4.7871    0.8910 C.3       1 <0>        -0.0563
     27 H4          3.7649    5.0212   -0.1720 H         1 <0>         0.0923
     28 H5          1.8824    0.1136    2.9273 H         1 <0>         0.0618
     29 H6          1.9792    1.8861    2.7960 H         1 <0>         0.0541
     30 H7          0.4825    1.0399    2.3353 H         1 <0>         0.0563
     31 H8          3.9549    0.7539    1.9434 H         1 <0>         0.0642
     32 H9          4.0249    0.1275    0.2892 H         1 <0>         0.0676
     33 H10         5.1203    2.4340    0.7335 H         1 <0>         0.0671
     34 H11         4.0139    2.3434   -0.6555 H         1 <0>         0.0650
     35 H12        -0.5124    1.9268   -0.8879 H         1 <0>         0.0640
     36 H13        -0.5186    1.9295    0.8983 H         1 <0>         0.0735
     37 H14        -0.6736   -0.3912    0.7637 H         1 <0>         0.0736
     38 H15        -0.2828   -0.3795   -0.9797 H         1 <0>         0.0663
     39 H16         1.8111   -0.3524   -1.8329 H         1 <0>         0.0823
     40 H17         3.2350   -0.8790   -0.8791 H         1 <0>         0.0827
     41 H18         2.3521   -3.0165   -1.5259 H         1 <0>         0.0804
     42 H19         0.6574   -2.4324   -1.4655 H         1 <0>         0.0754
     43 H20         2.4657   -3.2857    0.7912 H         1 <0>         0.0684
     44 H21         0.6886   -3.3536    0.6874 H         1 <0>         0.0667
     45 H22         0.9537    3.6720    2.3539 H         1 <0>         0.0697
     46 H23        -0.1667    3.9425    0.9901 H         1 <0>         0.0740
     47 H24         0.6987    6.0621    2.1017 H         1 <0>         0.0778
     48 H25         0.9852    5.9659    0.3509 H         1 <0>         0.0841
     49 H26         2.3585    7.3082    2.8455 H         1 <0>         0.1308
     50 H27         6.4493    6.3854    2.1079 H         1 <0>         0.0837
     51 H28         5.5670    6.8711    0.7275 H         1 <0>         0.0996
     52 H29         5.1611    4.3630    2.4198 H         1 <0>         0.0705
     53 H30         5.8288    4.4214    0.7776 H         1 <0>         0.0822
@<TRIPOS>BOND
     1    1    2 1
     2    1   28 1
     3    1   29 1
     4    1   30 1
     5    2    9 1
     6    2   13 1
     7    2    3 1
     8    3    4 1
     9    3   31 1
    10    3   32 1
    11    4    5 1
    12    4   33 1
    13    4   34 1
    14    5    6 1
    15    5   26 1
    16    5    7 1
    17    7    8 1
    18    7    9 1
    19    7   18 1
    20    9   10 1
    21    9   11 1
    22   11   12 1
    23   11   35 1
    24   11   36 1
    25   12   13 1
    26   12   37 1
    27   12   38 1
    28   13   17 1
    29   13   14 1
    30   14   15 1
    31   14   39 1
    32   14   40 1
    33   15   16 1
    34   15   41 1
    35   15   42 1
    36   16   17 1
    37   16   43 1
    38   16   44 1
    39   18   19 1
    40   18   45 1
    41   18   46 1
    42   19   20 1
    43   19   47 1
    44   19   48 1
    45   20   26 1
    46   20   21 2
    47   21   22 1
    48   21   49 1
    49   22   23 2
    50   22   24 1
    51   24   25 1
    52   24   50 1
    53   24   51 1
    54   25   26 1
    55   25   52 1
    56   25   53 1
    57   26   27 1
@<TRIPOS>MOLECULE
ZINC34801417
   59    62     0     0     0
SMALL
USER_CHARGES

@<TRIPOS>ATOM
      1 C1          0.0954    1.5626    0.0678 C.3       1 <0>        -0.1878
      2 C2         -0.0458    0.0397    0.1078 C.3       1 <0>         0.1103
      3 H1          0.3622   -0.3872   -0.8083 H         1 <0>         0.0529
      4 C3          0.7177   -0.5108    1.3098 C.3       1 <0>        -0.0819
      5 H2          1.7309   -0.1322    1.3462 H         1 <0>         0.0800
      6 C4         -0.0417   -0.2015    2.6271 C.3       1 <0>        -0.1164
      7 C5         -0.1055   -1.5422    3.4184 C.3       1 <0>        -0.1133
      8 C6          1.0081   -2.3595    2.7437 C.3       1 <0>        -0.0746
      9 H3          1.9758   -1.8926    3.0238 H         1 <0>         0.0640
     10 C7          0.7345   -2.0559    1.2553 C.3       1 <0>        -0.0519
     11 C8          1.8045   -2.6526    0.3843 C.3       1 <0>        -0.1025
     12 C9          2.1013   -4.1094    0.7568 C.3       1 <0>        -0.1060
     13 C10         1.1268   -4.6697    1.7768 C.3       1 <0>        -0.0678
     14 H4          0.1260   -4.7228    1.3376 H         1 <0>         0.0862
     15 C11         1.0843   -3.8208    3.0467 C.3       1 <0>        -0.0714
     16 H5          2.0331   -3.9853    3.5938 H         1 <0>         0.0650
     17 C12        -0.0442   -4.3237    3.9437 C.3       1 <0>        -0.1051
     18 C13         0.2579   -5.7769    4.3458 C.3       1 <0>        -0.1269
     19 C14         1.5402   -6.2467    3.6767 C.3       1 <0>         0.1560
     20 H6          2.3622   -5.6106    4.0309 H         1 <0>         0.0678
     21 C15         1.4640   -6.1140    2.1571 C.3       1 <0>        -0.0652
     22 C16         2.8018   -6.5429    1.5586 C.3       1 <0>        -0.1145
     23 C17         3.0435   -8.0260    1.8403 C.3       1 <0>        -0.1354
     24 C18         2.5926   -8.4127    3.2153 C.2       1 <0>         0.5154
     25 O1          2.8684   -9.5252    3.6150 O.2       1 <0>        -0.5574
     26 N1          1.9024   -7.6115    4.0352 N.am      1 <0>        -0.6021
     27 C19         1.5163   -8.1412    5.3438 C.3       1 <0>         0.0776
     28 C20         0.3511   -7.0156    1.6090 C.3       1 <0>        -0.1441
     29 C21        -0.6593   -2.4854    0.8016 C.3       1 <0>        -0.1320
     30 O2         -1.4273   -0.3078    0.2212 O.3       1 <0>        -0.5531
     31 H7          1.1491    1.8277   -0.0187 H         1 <0>         0.0625
     32 H8         -0.4497    1.9556   -0.7904 H         1 <0>         0.0554
     33 H9         -0.3126    1.9896    0.9839 H         1 <0>         0.0635
     34 H10         0.5010    0.5445    3.2042 H         1 <0>         0.0555
     35 H11        -1.0485    0.1471    2.4053 H         1 <0>         0.0774
     36 H12         0.1383   -1.3668    4.4684 H         1 <0>         0.0570
     37 H13        -1.0749   -2.0130    3.3267 H         1 <0>         0.0733
     38 H14         1.4946   -2.6024   -0.6696 H         1 <0>         0.0575
     39 H15         2.7273   -2.0595    0.4782 H         1 <0>         0.0568
     40 H16         2.0643   -4.7241   -0.1531 H         1 <0>         0.0623
     41 H17         3.1220   -4.1740    1.1567 H         1 <0>         0.0613
     42 H18        -0.1070   -3.7054    4.8379 H         1 <0>         0.0693
     43 H19        -0.9884   -4.2862    3.4017 H         1 <0>         0.0681
     44 H20         0.3793   -5.7983    5.4362 H         1 <0>         0.0676
     45 H21        -0.5813   -6.4135    4.0770 H         1 <0>         0.0723
     46 H22         2.7871   -6.3827    0.4769 H         1 <0>         0.0825
     47 H23         3.6075   -5.9511    1.9966 H         1 <0>         0.0715
     48 H24         2.5228   -8.6333    1.0995 H         1 <0>         0.1005
     49 H25         4.1166   -8.2315    1.7516 H         1 <0>         0.0982
     50 H26         0.5360   -8.6121    5.2704 H         1 <0>         0.0542
     51 H27         2.2503   -8.8789    5.6681 H         1 <0>         0.0798
     52 H28         1.4751   -7.3272    6.0676 H         1 <0>         0.0687
     53 H29         0.3004   -6.9121    0.5251 H         1 <0>         0.0609
     54 H30         0.5648   -8.0533    1.8653 H         1 <0>         0.0533
     55 H31        -0.6030   -6.7222    2.0470 H         1 <0>         0.0603
     56 H32        -0.8142   -2.1813   -0.2336 H         1 <0>         0.0598
     57 H33        -0.7489   -3.5689    0.8793 H         1 <0>         0.0447
     58 H34        -1.4095   -2.0124    1.4353 H         1 <0>         0.0720
     59 H35        -1.9742    0.0104   -0.5101 H         1 <0>         0.3676
@<TRIPOS>BOND
     1    1    2 1
     2    1   31 1
     3    1   32 1
     4    1   33 1
     5    2    3 1
     6    2    4 1
     7    2   30 1
     8    4    5 1
     9    4   10 1
    10    4    6 1
    11    6    7 1
    12    6   34 1
    13    6   35 1
    14    7    8 1
    15    7   36 1
    16    7   37 1
    17    8    9 1
    18    8   15 1
    19    8   10 1
    20   10   11 1
    21   10   29 1
    22   11   12 1
    23   11   38 1
    24   11   39 1
    25   12   13 1
    26   12   40 1
    27   12   41 1
    28   13   14 1
    29   13   21 1
    30   13   15 1
    31   15   16 1
    32   15   17 1
    33   17   18 1
    34   17   42 1
    35   17   43 1
    36   18   19 1
    37   18   44 1
    38   18   45 1
    39   19   20 1
    40   19   26 1
    41   19   21 1
    42   21   22 1
    43   21   28 1
    44   22   23 1
    45   22   46 1
    46   22   47 1
    47   23   24 1
    48   23   48 1
    49   23   49 1
    50   24   25 2
    51   24   26 am
    52   26   27 1
    53   27   50 1
    54   27   51 1
    55   27   52 1
    56   28   53 1
    57   28   54 1
    58   28   55 1
    59   29   56 1
    60   29   57 1
    61   29   58 1
    62   30   59 1
@<TRIPOS>MOLECULE
ZINC34801418
   59    62     0     0     0
SMALL
USER_CHARGES

@<TRIPOS>ATOM
      1 C1         -0.5291    1.6411   -0.6013 C.3       1 <0>        -0.1898
      2 C2         -0.2977    0.1436   -0.3891 C.3       1 <0>         0.1059
      3 H1          0.2169   -0.2710   -1.2559 H         1 <0>         0.0603
      4 C3         -1.6415   -0.5587   -0.2110 C.3       1 <0>        -0.0807
      5 H2         -2.1887   -0.1643    0.6353 H         1 <0>         0.0774
      6 C4         -2.4823   -0.4664   -1.5118 C.3       1 <0>        -0.1191
      7 C5         -2.9876   -1.9103   -1.8076 C.3       1 <0>        -0.1160
      8 C6         -2.8146   -2.5909   -0.4401 C.3       1 <0>        -0.0778
      9 H3         -3.5651   -2.1462    0.2469 H         1 <0>         0.0668
     10 C7         -1.4174   -2.0780   -0.0314 C.3       1 <0>        -0.0397
     11 C8         -1.0782   -2.5126    1.3670 C.3       1 <0>        -0.0954
     12 C9         -1.3694   -4.0005    1.5919 C.3       1 <0>        -0.1087
     13 C10        -1.7458   -4.7294    0.3148 C.3       1 <0>        -0.0667
     14 H4         -0.8896   -4.7423   -0.3665 H         1 <0>         0.0837
     15 C11        -2.9419   -4.0785   -0.3785 C.3       1 <0>        -0.0721
     16 H5         -3.8427   -4.2979    0.2272 H         1 <0>         0.0663
     17 C12        -3.1457   -4.7363   -1.7410 C.3       1 <0>        -0.1052
     18 C13        -3.4657   -6.2249   -1.5252 C.3       1 <0>        -0.1268
     19 C14        -3.4174   -6.5585   -0.0424 C.3       1 <0>         0.1559
     20 H6         -4.1854   -5.9612    0.4665 H         1 <0>         0.0680
     21 C15        -2.0640   -6.2051    0.5708 C.3       1 <0>        -0.0653
     22 C16        -2.1082   -6.5072    2.0670 C.3       1 <0>        -0.1146
     23 C17        -2.2910   -8.0092    2.2868 C.3       1 <0>        -0.1355
     24 C18        -3.2426   -8.6057    1.2959 C.2       1 <0>         0.5156
     25 O1         -3.5889   -9.7577    1.4586 O.2       1 <0>        -0.5573
     26 N1         -3.7376   -7.9517    0.2385 N.am      1 <0>        -0.6023
     27 C19        -4.6440   -8.6782   -0.6519 C.3       1 <0>         0.0777
     28 C20        -0.9590   -7.0437   -0.0833 C.3       1 <0>        -0.1441
     29 C21        -0.3212   -2.4708   -1.0200 C.3       1 <0>        -0.1490
     30 O2          0.5015   -0.0540    0.7789 O.3       1 <0>        -0.5616
     31 H7          0.4303    2.1425   -0.7285 H         1 <0>         0.0554
     32 H8         -1.1387    1.7918   -1.4923 H         1 <0>         0.0653
     33 H9         -1.0437    2.0556    0.2655 H         1 <0>         0.0616
     34 H10        -3.3296    0.1998   -1.3618 H         1 <0>         0.0655
     35 H11        -1.8620   -0.1142   -2.3338 H         1 <0>         0.0651
     36 H12        -4.0433   -1.8856   -2.0862 H         1 <0>         0.0616
     37 H13        -2.4012   -2.3866   -2.5816 H         1 <0>         0.0735
     38 H14        -0.0153   -2.3154    1.5684 H         1 <0>         0.0700
     39 H15        -1.6595   -1.9169    2.0877 H         1 <0>         0.0552
     40 H16        -0.4802   -4.4750    2.0295 H         1 <0>         0.0615
     41 H17        -2.1862   -4.0977    2.3193 H         1 <0>         0.0598
     42 H18        -3.9752   -4.2585   -2.2602 H         1 <0>         0.0694
     43 H19        -2.2364   -4.6431   -2.3335 H         1 <0>         0.0671
     44 H20        -4.4766   -6.4039   -1.9128 H         1 <0>         0.0678
     45 H21        -2.7645   -6.8358   -2.0883 H         1 <0>         0.0723
     46 H22        -1.1710   -6.1897    2.5325 H         1 <0>         0.0831
     47 H23        -2.9370   -5.9664    2.5272 H         1 <0>         0.0717
     48 H24        -1.3267   -8.5134    2.2184 H         1 <0>         0.1005
     49 H25        -2.6865   -8.1722    3.2961 H         1 <0>         0.0983
     50 H26        -4.0686   -9.1576   -1.4438 H         1 <0>         0.0541
     51 H27        -5.1814   -9.4369   -0.0830 H         1 <0>         0.0798
     52 H28        -5.3571   -7.9811   -1.0919 H         1 <0>         0.0685
     53 H29         0.0036   -6.7828    0.3565 H         1 <0>         0.0611
     54 H30        -1.1595   -8.1021    0.0830 H         1 <0>         0.0534
     55 H31        -0.9358   -6.8422   -1.1543 H         1 <0>         0.0598
     56 H32         0.6196   -2.0079   -0.7220 H         1 <0>         0.0602
     57 H33        -0.2074   -3.5548   -1.0245 H         1 <0>         0.0599
     58 H34        -0.5936   -2.1298   -2.0188 H         1 <0>         0.0547
     59 H35         1.3715    0.3658    0.7358 H         1 <0>         0.3740
@<TRIPOS>BOND
     1    1    2 1
     2    1   31 1
     3    1   32 1
     4    1   33 1
     5    2    3 1
     6    2    4 1
     7    2   30 1
     8    4    5 1
     9    4   10 1
    10    4    6 1
    11    6    7 1
    12    6   34 1
    13    6   35 1
    14    7    8 1
    15    7   36 1
    16    7   37 1
    17    8    9 1
    18    8   15 1
    19    8   10 1
    20   10   11 1
    21   10   29 1
    22   11   12 1
    23   11   38 1
    24   11   39 1
    25   12   13 1
    26   12   40 1
    27   12   41 1
    28   13   14 1
    29   13   21 1
    30   13   15 1
    31   15   16 1
    32   15   17 1
    33   17   18 1
    34   17   42 1
    35   17   43 1
    36   18   19 1
    37   18   44 1
    38   18   45 1
    39   19   20 1
    40   19   26 1
    41   19   21 1
    42   21   22 1
    43   21   28 1
    44   22   23 1
    45   22   46 1
    46   22   47 1
    47   23   24 1
    48   23   48 1
    49   23   49 1
    50   24   25 2
    51   24   26 am
    52   26   27 1
    53   27   50 1
    54   27   51 1
    55   27   52 1
    56   28   53 1
    57   28   54 1
    58   28   55 1
    59   29   56 1
    60   29   57 1
    61   29   58 1
    62   30   59 1
