@<TRIPOS>MOLECULE
ZINC53122793
   18    17     0     0     0
SMALL
USER_CHARGES

@<TRIPOS>ATOM
      1 C1         -0.0187    1.5258    0.0104 C.3       1 <0>        -0.1712
      2 C2          0.0021   -0.0041    0.0020 C.3       1 <0>        -0.0127
      3 N1         -1.3761   -0.5125    0.0124 N.4       1 <0>        -0.6350
      4 C3          1.4167    2.0553   -0.0004 C.3       1 <0>         0.0279
      5 H1          1.9696    1.6236    0.8338 H         1 <0>         0.0836
      6 C4          1.3993    3.5565    0.1316 C.2       1 <0>         0.4957
      7 O1          1.0708    4.0718    1.1866 O.co2     1 <0>        -0.6932
      8 O2          1.7138    4.2555   -0.8165 O.co2     1 <0>        -0.6672
      9 N2          2.0667    1.6824   -1.2639 N.3       1 <0>        -0.8216
     10 H2         -0.5459    1.8868   -0.8726 H         1 <0>         0.0797
     11 H3         -0.5289    1.8773    0.9072 H         1 <0>         0.0954
     12 H4          0.5123   -0.3556   -0.8948 H         1 <0>         0.1252
     13 H5          0.5293   -0.3651    0.8851 H         1 <0>         0.1330
     14 H6         -1.8484   -0.1871    0.8426 H         1 <0>         0.4349
     15 H7         -1.8641   -0.1783   -0.8050 H         1 <0>         0.4326
     16 H8          2.1486    0.6802   -1.3464 H         1 <0>         0.3137
     17 H9          1.5725    2.0710   -2.0532 H         1 <0>         0.3481
     18 H10        -1.3624   -1.5214    0.0069 H         1 <0>         0.4309
@<TRIPOS>BOND
     1    1    2 1
     2    1    4 1
     3    1   10 1
     4    1   11 1
     5    2    3 1
     6    2   12 1
     7    2   13 1
     8    3   14 1
     9    3   15 1
    10    3   18 1
    11    4    5 1
    12    4    6 1
    13    4    9 1
    14    6    7 2
    15    6    8 1
    16    9   16 1
    17    9   17 1
@<TRIPOS>MOLECULE
ZINC01534967
   48    50     0     0     0
SMALL
USER_CHARGES

@<TRIPOS>ATOM
      1 C1          0.2838    1.1684   -1.7618 C.ar      1 <0>        -0.0932
      2 C2          1.4403    1.9014   -1.5643 C.ar      1 <0>        -0.1235
      3 C3          2.5517    1.3046   -1.0052 C.ar      1 <0>        -0.0727
      4 C4          2.5074   -0.0401   -0.6386 C.ar      1 <0>        -0.0624
      5 C5          1.3385   -0.7737   -0.8397 C.ar      1 <0>        -0.0870
      6 C6          0.2337   -0.1660   -1.4002 C.ar      1 <0>        -0.1232
      7 C7          3.6974   -0.6870   -0.0382 C.2       1 <0>         0.2395
      8 N1          4.6955    0.0405    0.3738 N.2       1 <0>        -0.3213
      9 O1          5.8835   -0.5806    0.8297 O.3       1 <0>        -0.2502
     10 C8          6.8943    0.3374    1.2512 C.3       1 <0>         0.0393
     11 C9          8.1256   -0.4401    1.7207 C.3       1 <0>         0.0034
     12 N2          8.7090   -1.1659    0.5845 N.4       1 <0>        -0.3879
     13 C10         9.8269   -1.9992    1.0544 C.3       1 <0>        -0.0033
     14 C11        10.2466   -2.9387   -0.0790 C.3       1 <0>        -0.1154
     15 C12        10.4413   -2.1471   -1.3431 C.2       1 <0>        -0.1318
     16 C13         9.9716   -0.9189   -1.4865 C.2       1 <0>        -0.2017
     17 C14         9.2112   -0.2061   -0.4055 C.3       1 <0>         0.0492
     18 C15        10.2037   -0.2229   -2.7569 C.2       1 <0>         0.5174
     19 O2         10.8202   -0.7793   -3.6557 O.co2     1 <0>        -0.6657
     20 O3          9.7807    0.9141   -2.9178 O.co2     1 <0>        -0.6802
     21 C16         3.7517   -2.1618    0.0933 C.ar      1 <0>        -0.1011
     22 C17         3.2279   -2.9740   -0.9120 C.ar      1 <0>        -0.0869
     23 C18         3.2818   -4.3469   -0.7840 C.ar      1 <0>        -0.1204
     24 C19         3.8537   -4.9178    0.3389 C.ar      1 <0>        -0.0984
     25 C20         4.3746   -4.1172    1.3397 C.ar      1 <0>        -0.1268
     26 C21         4.3321   -2.7432    1.2202 C.ar      1 <0>        -0.0818
     27 H1         -0.5849    1.6409   -2.1960 H         1 <0>         0.1293
     28 H2          1.4735    2.9428   -1.8487 H         1 <0>         0.1314
     29 H3          3.4543    1.8777   -0.8522 H         1 <0>         0.1335
     30 H4          1.2984   -1.8156   -0.5581 H         1 <0>         0.1330
     31 H5         -0.6719   -0.7332   -1.5568 H         1 <0>         0.1314
     32 H6          7.1688    0.9836    0.4174 H         1 <0>         0.0886
     33 H7          6.5137    0.9453    2.0720 H         1 <0>         0.1011
     34 H8          8.8619    0.2548    2.1246 H         1 <0>         0.1468
     35 H9          7.8336   -1.1503    2.4943 H         1 <0>         0.1340
     36 H10        10.6669   -1.3621    1.3314 H         1 <0>         0.1287
     37 H11         9.5091   -2.5853    1.9167 H         1 <0>         0.1272
     38 H12        11.1805   -3.4338    0.1868 H         1 <0>         0.1169
     39 H13         9.4705   -3.6879   -0.2357 H         1 <0>         0.0960
     40 H14        10.9835   -2.5969   -2.1617 H         1 <0>         0.1458
     41 H15         8.3707    0.3283   -0.8483 H         1 <0>         0.1398
     42 H16         9.8701    0.5088    0.0873 H         1 <0>         0.1317
     43 H17         2.7805   -2.5294   -1.7887 H         1 <0>         0.1329
     44 H18         2.8764   -4.9770   -1.5619 H         1 <0>         0.1311
     45 H19         3.8933   -5.9928    0.4347 H         1 <0>         0.1277
     46 H20         4.8192   -4.5686    2.2143 H         1 <0>         0.1265
     47 H21         4.7431   -2.1193    2.0001 H         1 <0>         0.1256
     48 H22         8.0050   -1.7511    0.1604 H         1 <0>         0.4269
@<TRIPOS>BOND
     1    1    6 ar
     2    1    2 ar
     3    1   27 1
     4    2    3 ar
     5    2   28 1
     6    3    4 ar
     7    3   29 1
     8    4    5 ar
     9    4    7 1
    10    5    6 ar
    11    5   30 1
    12    6   31 1
    13    7    8 2
    14    7   21 1
    15    8    9 1
    16    9   10 1
    17   10   11 1
    18   10   32 1
    19   10   33 1
    20   11   12 1
    21   11   34 1
    22   11   35 1
    23   12   17 1
    24   12   13 1
    25   12   48 1
    26   13   14 1
    27   13   36 1
    28   13   37 1
    29   14   15 1
    30   14   38 1
    31   14   39 1
    32   15   16 2
    33   15   40 1
    34   16   17 1
    35   16   18 1
    36   17   41 1
    37   17   42 1
    38   18   19 2
    39   18   20 1
    40   21   26 ar
    41   21   22 ar
    42   22   23 ar
    43   22   43 1
    44   23   24 ar
    45   23   44 1
    46   24   25 ar
    47   24   45 1
    48   25   26 ar
    49   25   46 1
    50   26   47 1
