@<TRIPOS>MOLECULE
ZINC01039775
   47    50     0     0     0
SMALL
USER_CHARGES
4-[[5-[(4-chlorophenyl)methylsulfanyl]-4-methyl-1,2,4-triazol-3-yl]methyl]-6-(trifluoromethyl)-1,4-benzothiazin-3-one
@<TRIPOS>ATOM
      1 C1         -0.0899    5.1176   -2.5629 C.3       1 <0>         0.0763
      2 N1         -1.5237    5.1992   -2.8521 N.pl3     1 <0>        -0.4466
      3 C2         -2.5472    5.2506   -1.9465 C.2       1 <0>         0.1504
      4 N2         -3.6593    5.3215   -2.6217 N.2       1 <0>        -0.2643
      5 N3         -3.4112    5.3137   -3.8828 N.2       1 <0>        -0.2836
      6 C3         -2.1158    5.2366   -4.0819 C.2       1 <0>         0.1587
      7 S1         -1.2961    5.1960   -5.6411 S.3       1 <0>         0.0166
      8 C4         -2.7240    5.2891   -6.7494 C.3       1 <0>        -0.0625
      9 C5         -2.2515    5.2687   -8.1803 C.ar      1 <0>        -0.0814
     10 C6         -1.9677    6.4549   -8.8311 C.ar      1 <0>        -0.0847
     11 C7         -1.5289    6.4365  -10.1416 C.ar      1 <0>        -0.1095
     12 C8         -1.3844    5.2314  -10.8056 C.ar      1 <0>        -0.0254
     13 C9         -1.6740    4.0450  -10.1555 C.ar      1 <0>        -0.1096
     14 C10        -2.1074    4.0643   -8.8432 C.ar      1 <0>        -0.0850
     15 Cl1        -0.8395    5.2079  -12.4537 Cl        1 <0>        -0.0636
     16 C11        -2.4131    5.2349   -0.4456 C.3       1 <0>         0.1850
     17 N4         -2.4527    3.8511    0.0337 N.am      1 <0>        -0.5367
     18 C12        -3.7042    3.3318    0.3537 C.ar      1 <0>         0.1502
     19 C13        -4.8452    3.9135   -0.1881 C.ar      1 <0>        -0.0837
     20 C14        -6.0949    3.4149    0.1228 C.ar      1 <0>        -0.1471
     21 C15        -6.2263    2.3347    0.9764 C.ar      1 <0>        -0.0738
     22 C16        -5.1003    1.7458    1.5221 C.ar      1 <0>        -0.0623
     23 C17        -3.8449    2.2435    1.2160 C.ar      1 <0>        -0.1023
     24 S2         -2.3992    1.4909    1.8926 S.3       1 <0>        -0.0589
     25 C18        -1.1529    1.7934    0.6034 C.3       1 <0>        -0.1307
     26 C19        -1.2893    3.2119    0.1216 C.2       1 <0>         0.5247
     27 O1         -0.2832    3.8055   -0.2052 O.2       1 <0>        -0.5079
     28 C20        -7.3241    4.0526   -0.4717 C.3       1 <0>         0.5099
     29 F1         -8.4642    3.3823   -0.0155 F         1 <0>        -0.1749
     30 F2         -7.3864    5.3955   -0.0846 F         1 <0>        -0.1724
     31 F3         -7.2628    3.9719   -1.8671 F         1 <0>        -0.1677
     32 H1          0.2086    4.0713   -2.4974 H         1 <0>         0.0896
     33 H2          0.4700    5.6059   -3.3605 H         1 <0>         0.0905
     34 H3          0.1185    5.6149   -1.6156 H         1 <0>         0.1038
     35 H4         -3.3788    4.4362   -6.5708 H         1 <0>         0.1103
     36 H5         -3.2710    6.2128   -6.5605 H         1 <0>         0.1110
     37 H6         -2.0847    7.3958   -8.3140 H         1 <0>         0.1374
     38 H7         -1.3030    7.3630  -10.6486 H         1 <0>         0.1386
     39 H8         -1.5612    3.1039  -10.6733 H         1 <0>         0.1384
     40 H9         -2.3331    3.1382   -8.3355 H         1 <0>         0.1368
     41 H10        -3.2347    5.7968   -0.0015 H         1 <0>         0.1280
     42 H11        -1.4651    5.6911   -0.1607 H         1 <0>         0.1243
     43 H12        -4.7536    4.7582   -0.8549 H         1 <0>         0.1644
     44 H13        -7.2071    1.9514    1.2163 H         1 <0>         0.1521
     45 H14        -5.2001    0.9023    2.1891 H         1 <0>         0.1524
     46 H15        -1.3139    1.1078   -0.2285 H         1 <0>         0.1286
     47 H16        -0.1556    1.6421    1.0166 H         1 <0>         0.1567
@<TRIPOS>BOND
     1    1    2 1
     2    1   32 1
     3    1   33 1
     4    1   34 1
     5    2    6 1
     6    2    3 1
     7    3    4 2
     8    3   16 1
     9    4    5 1
    10    5    6 2
    11    6    7 1
    12    7    8 1
    13    8    9 1
    14    8   35 1
    15    8   36 1
    16    9   14 ar
    17    9   10 ar
    18   10   11 ar
    19   10   37 1
    20   11   12 ar
    21   11   38 1
    22   12   13 ar
    23   12   15 1
    24   13   14 ar
    25   13   39 1
    26   14   40 1
    27   16   17 1
    28   16   41 1
    29   16   42 1
    30   17   26 am
    31   17   18 1
    32   18   23 ar
    33   18   19 ar
    34   19   20 ar
    35   19   43 1
    36   20   21 ar
    37   20   28 1
    38   21   22 ar
    39   21   44 1
    40   22   23 ar
    41   22   45 1
    42   23   24 1
    43   24   25 1
    44   25   26 1
    45   25   46 1
    46   25   47 1
    47   26   27 2
    48   28   29 1
    49   28   30 1
    50   28   31 1
