@<TRIPOS>MOLECULE
ZINC01039775
   47    50     0     0     0
SMALL
USER_CHARGES
4-[[5-[(4-chlorophenyl)methylsulfanyl]-4-methyl-1,2,4-triazol-3-yl]methyl]-6-(trifluoromethyl)-1,4-benzothiazin-3-one
@<TRIPOS>ATOM
      1 C1         -0.0899    5.1176   -2.5629 C.3       1 <0>         0.0763
      2 N1         -1.5237    5.1992   -2.8521 N.pl3     1 <0>        -0.4466
      3 C2         -2.5472    5.2506   -1.9465 C.2       1 <0>         0.1504
      4 N2         -3.6593    5.3215   -2.6217 N.2       1 <0>        -0.2643
      5 N3         -3.4112    5.3137   -3.8828 N.2       1 <0>        -0.2836
      6 C3         -2.1158    5.2366   -4.0819 C.2       1 <0>         0.1587
      7 S1         -1.2961    5.1960   -5.6411 S.3       1 <0>         0.0166
      8 C4         -2.7240    5.2891   -6.7494 C.3       1 <0>        -0.0625
      9 C5         -2.2515    5.2687   -8.1803 C.ar      1 <0>        -0.0814
     10 C6         -1.9677    6.4549   -8.8311 C.ar      1 <0>        -0.0847
     11 C7         -1.5289    6.4365  -10.1416 C.ar      1 <0>        -0.1095
     12 C8         -1.3844    5.2314  -10.8056 C.ar      1 <0>        -0.0254
     13 C9         -1.6740    4.0450  -10.1555 C.ar      1 <0>        -0.1096
     14 C10        -2.1074    4.0643   -8.8432 C.ar      1 <0>        -0.0850
     15 Cl1        -0.8395    5.2079  -12.4537 Cl        1 <0>        -0.0636
     16 C11        -2.4131    5.2349   -0.4456 C.3       1 <0>         0.1850
     17 N4         -2.4527    3.8511    0.0337 N.am      1 <0>        -0.5367
     18 C12        -3.7042    3.3318    0.3537 C.ar      1 <0>         0.1502
     19 C13        -4.8452    3.9135   -0.1881 C.ar      1 <0>        -0.0837
     20 C14        -6.0949    3.4149    0.1228 C.ar      1 <0>        -0.1471
     21 C15        -6.2263    2.3347    0.9764 C.ar      1 <0>        -0.0738
     22 C16        -5.1003    1.7458    1.5221 C.ar      1 <0>        -0.0623
     23 C17        -3.8449    2.2435    1.2160 C.ar      1 <0>        -0.1023
     24 S2         -2.3992    1.4909    1.8926 S.3       1 <0>        -0.0589
     25 C18        -1.1529    1.7934    0.6034 C.3       1 <0>        -0.1307
     26 C19        -1.2893    3.2119    0.1216 C.2       1 <0>         0.5247
     27 O1         -0.2832    3.8055   -0.2052 O.2       1 <0>        -0.5079
     28 C20        -7.3241    4.0526   -0.4717 C.3       1 <0>         0.5099
     29 F1         -8.4642    3.3823   -0.0155 F         1 <0>        -0.1749
     30 F2         -7.3864    5.3955   -0.0846 F         1 <0>        -0.1724
     31 F3         -7.2628    3.9719   -1.8671 F         1 <0>        -0.1677
     32 H1          0.2086    4.0713   -2.4974 H         1 <0>         0.0896
     33 H2          0.4700    5.6059   -3.3605 H         1 <0>         0.0905
     34 H3          0.1185    5.6149   -1.6156 H         1 <0>         0.1038
     35 H4         -3.3788    4.4362   -6.5708 H         1 <0>         0.1103
     36 H5         -3.2710    6.2128   -6.5605 H         1 <0>         0.1110
     37 H6         -2.0847    7.3958   -8.3140 H         1 <0>         0.1374
     38 H7         -1.3030    7.3630  -10.6486 H         1 <0>         0.1386
     39 H8         -1.5612    3.1039  -10.6733 H         1 <0>         0.1384
     40 H9         -2.3331    3.1382   -8.3355 H         1 <0>         0.1368
     41 H10        -3.2347    5.7968   -0.0015 H         1 <0>         0.1280
     42 H11        -1.4651    5.6911   -0.1607 H         1 <0>         0.1243
     43 H12        -4.7536    4.7582   -0.8549 H         1 <0>         0.1644
     44 H13        -7.2071    1.9514    1.2163 H         1 <0>         0.1521
     45 H14        -5.2001    0.9023    2.1891 H         1 <0>         0.1524
     46 H15        -1.3139    1.1078   -0.2285 H         1 <0>         0.1286
     47 H16        -0.1556    1.6421    1.0166 H         1 <0>         0.1567
@<TRIPOS>BOND
     1    1    2 1
     2    1   32 1
     3    1   33 1
     4    1   34 1
     5    2    6 1
     6    2    3 1
     7    3    4 2
     8    3   16 1
     9    4    5 1
    10    5    6 2
    11    6    7 1
    12    7    8 1
    13    8    9 1
    14    8   35 1
    15    8   36 1
    16    9   14 ar
    17    9   10 ar
    18   10   11 ar
    19   10   37 1
    20   11   12 ar
    21   11   38 1
    22   12   13 ar
    23   12   15 1
    24   13   14 ar
    25   13   39 1
    26   14   40 1
    27   16   17 1
    28   16   41 1
    29   16   42 1
    30   17   26 am
    31   17   18 1
    32   18   23 ar
    33   18   19 ar
    34   19   20 ar
    35   19   43 1
    36   20   21 ar
    37   20   28 1
    38   21   22 ar
    39   21   44 1
    40   22   23 ar
    41   22   45 1
    42   23   24 1
    43   24   25 1
    44   25   26 1
    45   25   46 1
    46   25   47 1
    47   26   27 2
    48   28   29 1
    49   28   30 1
    50   28   31 1
@<TRIPOS>MOLECULE
ZINC68197809
   55    58     0     0     0
SMALL
USER_CHARGES

@<TRIPOS>ATOM
      1 C1         -0.0187    1.5258    0.0104 C.3       1 <0>        -0.1529
      2 C2          0.0021   -0.0041    0.0020 C.3       1 <0>         0.0542
      3 O1          0.6709   -0.4649   -1.1737 O.3       1 <0>        -0.3173
      4 C3          0.7768   -1.8100   -1.3361 C.ar      1 <0>         0.1296
      5 C4          0.2427   -2.6687   -0.3864 C.ar      1 <0>        -0.2075
      6 C5          0.3511   -4.0357   -0.5541 C.ar      1 <0>        -0.0716
      7 C6          0.9917   -4.5482   -1.6671 C.ar      1 <0>        -0.1173
      8 C7          1.5253   -3.6944   -2.6148 C.ar      1 <0>        -0.0717
      9 C8          1.4140   -2.3268   -2.4548 C.ar      1 <0>        -0.1526
     10 C9          1.1090   -6.0397   -1.8472 C.3       1 <0>        -0.0392
     11 C10        -0.0856   -6.5489   -2.6119 C.ar      1 <0>        -0.0708
     12 C11         0.0208   -6.8134   -3.9645 C.ar      1 <0>        -0.0742
     13 C12        -1.0748   -7.2804   -4.6660 C.ar      1 <0>        -0.0687
     14 C13        -2.2777   -7.4832   -4.0153 C.ar      1 <0>        -0.0593
     15 C14        -2.3854   -7.2192   -2.6631 C.ar      1 <0>        -0.1122
     16 C15        -1.2873   -6.7571   -1.9592 C.ar      1 <0>        -0.0181
     17 Cl1        -1.4200   -6.4314   -0.2591 Cl        1 <0>        -0.0633
     18 C16        -0.9582   -7.5681   -6.1406 C.3       1 <0>         0.3127
     19 C17        -1.2859   -6.3244   -6.9813 C.3       1 <0>         0.0488
     20 H1         -0.5257   -5.5610   -6.8159 H         1 <0>         0.0857
     21 C18        -1.3036   -6.7190   -8.4621 C.3       1 <0>         0.0360
     22 H2         -2.1556   -7.3710   -8.6547 H         1 <0>         0.0890
     23 C19        -0.0054   -7.4587   -8.8045 C.3       1 <0>         0.1014
     24 H3          0.8362   -6.7687   -8.7432 H         1 <0>         0.0835
     25 C20         0.1881   -8.6003   -7.7930 C.3       1 <0>         0.0867
     26 O2          0.3778   -7.9911   -6.4917 O.3       1 <0>        -0.3325
     27 C21        -1.1702   -9.3226   -7.6329 C.3       1 <0>         0.0282
     28 O3         -1.8291   -8.6437   -6.5366 O.3       1 <0>        -0.3557
     29 C22         1.3325   -9.5395   -8.1792 C.3       1 <0>         0.1050
     30 O4          1.3791  -10.6354   -7.2632 O.3       1 <0>        -0.5636
     31 O5         -0.0922   -7.9935  -10.1268 O.3       1 <0>        -0.5506
     32 O6         -1.4107   -5.5436   -9.2677 O.3       1 <0>        -0.5570
     33 O7         -2.5664   -5.8148   -6.6035 O.3       1 <0>        -0.5369
     34 H4          1.0039    1.9031    0.0027 H         1 <0>         0.0666
     35 H5         -0.5459    1.8868   -0.8726 H         1 <0>         0.0664
     36 H6         -0.5289    1.8773    0.9072 H         1 <0>         0.0790
     37 H7          0.5293   -0.3651    0.8851 H         1 <0>         0.0620
     38 H8         -1.0205   -0.3814    0.0098 H         1 <0>         0.0617
     39 H9         -0.2572   -2.2689    0.4835 H         1 <0>         0.1263
     40 H10        -0.0645   -4.7046    0.1850 H         1 <0>         0.1296
     41 H11         2.0255   -4.0972   -3.4831 H         1 <0>         0.1272
     42 H12         1.8270   -1.6604   -3.1976 H         1 <0>         0.1295
     43 H13         2.0194   -6.2683   -2.4013 H         1 <0>         0.0870
     44 H14         1.1475   -6.5218   -0.8703 H         1 <0>         0.0885
     45 H15         0.9602   -6.6548   -4.4733 H         1 <0>         0.1357
     46 H16        -3.1335   -7.8478   -4.5640 H         1 <0>         0.1393
     47 H17        -3.3252   -7.3774   -2.1550 H         1 <0>         0.1380
     48 H18        -1.7537   -9.2402   -8.5499 H         1 <0>         0.0955
     49 H19        -1.0143  -10.3700   -7.3746 H         1 <0>         0.1029
     50 H20         1.1681   -9.9165   -9.1887 H         1 <0>         0.0828
     51 H21         2.2765   -8.9958   -8.1437 H         1 <0>         0.0643
     52 H22         2.0826  -11.2726   -7.4479 H         1 <0>         0.3885
     53 H23        -0.2280   -7.3258  -10.8130 H         1 <0>         0.3954
     54 H24        -2.2092   -5.0242   -9.1016 H         1 <0>         0.3858
     55 H25        -2.8373   -5.0277   -7.0956 H         1 <0>         0.3800
@<TRIPOS>BOND
     1    1    2 1
     2    1   34 1
     3    1   35 1
     4    1   36 1
     5    2    3 1
     6    2   37 1
     7    2   38 1
     8    3    4 1
     9    4    9 ar
    10    4    5 ar
    11    5    6 ar
    12    5   39 1
    13    6    7 ar
    14    6   40 1
    15    7    8 ar
    16    7   10 1
    17    8    9 ar
    18    8   41 1
    19    9   42 1
    20   10   11 1
    21   10   43 1
    22   10   44 1
    23   11   16 ar
    24   11   12 ar
    25   12   13 ar
    26   12   45 1
    27   13   14 ar
    28   13   18 1
    29   14   15 ar
    30   14   46 1
    31   15   16 ar
    32   15   47 1
    33   16   17 1
    34   18   26 1
    35   18   28 1
    36   18   19 1
    37   19   20 1
    38   19   21 1
    39   19   33 1
    40   21   22 1
    41   21   23 1
    42   21   32 1
    43   23   24 1
    44   23   25 1
    45   23   31 1
    46   25   26 1
    47   25   27 1
    48   25   29 1
    49   27   28 1
    50   27   48 1
    51   27   49 1
    52   29   30 1
    53   29   50 1
    54   29   51 1
    55   30   52 1
    56   31   53 1
    57   32   54 1
    58   33   55 1
@<TRIPOS>MOLECULE
ZINC59047505
   61    64     0     0     0
SMALL
USER_CHARGES

@<TRIPOS>ATOM
      1 C1         -0.0167    1.3784    0.0096 C.ar      1 <0>        -0.0722
      2 C2          1.1695    2.0865    0.0021 C.ar      1 <0>        -0.1500
      3 C3          2.3802    1.4093   -0.0131 C.ar      1 <0>         0.1309
      4 C4          2.3963    0.0221   -0.0206 C.ar      1 <0>        -0.2094
      5 C5          1.2074   -0.6814   -0.0130 C.ar      1 <0>        -0.0701
      6 C6          0.0021   -0.0041    0.0020 C.ar      1 <0>        -0.1181
      7 C7         -1.2934   -0.7740    0.0107 C.3       1 <0>        -0.0393
      8 C8         -1.7392   -1.0230   -1.4071 C.ar      1 <0>        -0.0667
      9 C9         -1.5145   -2.2530   -1.9966 C.ar      1 <0>        -0.0745
     10 C10        -1.9234   -2.4816   -3.2970 C.ar      1 <0>        -0.0675
     11 C11        -2.5574   -1.4802   -4.0090 C.ar      1 <0>        -0.0849
     12 C12        -2.7827   -0.2502   -3.4208 C.ar      1 <0>        -0.1101
     13 C13        -2.3787   -0.0226   -2.1171 C.ar      1 <0>        -0.0233
     14 Cl1        -2.6672    1.5201   -1.3752 Cl        1 <0>        -0.0637
     15 C14        -1.6776   -3.8226   -3.9392 C.3       1 <0>         0.1396
     16 H1         -0.8864   -4.3441   -3.4004 H         1 <0>         0.0821
     17 C15        -2.9618   -4.6545   -3.8916 C.3       1 <0>         0.0968
     18 H2         -3.7641   -4.1151   -4.3951 H         1 <0>         0.0748
     19 C16        -2.7213   -5.9916   -4.5991 C.3       1 <0>         0.0383
     20 H3         -1.9534   -6.5529   -4.0667 H         1 <0>         0.0787
     21 C17        -2.2565   -5.7213   -6.0335 C.3       1 <0>         0.0488
     22 H4         -3.0445   -5.2035   -6.5802 H         1 <0>         0.0796
     23 C18        -0.9995   -4.8482   -5.9983 C.3       1 <0>         0.0988
     24 H5         -0.1994   -5.3832   -5.4866 H         1 <0>         0.0804
     25 O1         -1.2834   -3.6343   -5.2998 O.3       1 <0>        -0.3417
     26 C19        -0.5632   -4.5241   -7.4285 C.3       1 <0>         0.0898
     27 O2          0.6732   -3.8082   -7.3987 O.3       1 <0>        -0.5654
     28 O3         -1.9608   -6.9604   -6.6811 O.3       1 <0>        -0.5523
     29 O4         -3.9350   -6.7454   -4.6221 O.3       1 <0>        -0.5571
     30 O5         -3.3268   -4.8919   -2.5305 O.3       1 <0>        -0.5475
     31 O6          3.5484    2.1036   -0.0209 O.3       1 <0>        -0.3069
     32 C20         4.7565    1.3405   -0.0365 C.3       1 <0>         0.0611
     33 C21         5.9580    2.2878   -0.0434 C.3       1 <0>         0.0650
     34 O7          5.9914    3.0237    1.1811 O.3       1 <0>        -0.3494
     35 C22         7.0815    3.9426    1.2773 C.3       1 <0>         0.0133
     36 C23         7.7662    4.0864    2.6380 C.3       1 <0>        -0.1887
     37 C24         6.8679    5.2073    2.1114 C.3       1 <0>        -0.1820
     38 H6         -0.9594    1.9052    0.0259 H         1 <0>         0.1330
     39 H7          1.1543    3.1664    0.0076 H         1 <0>         0.1295
     40 H8          3.3375   -0.5074   -0.0328 H         1 <0>         0.1263
     41 H9          1.2194   -1.7613   -0.0189 H         1 <0>         0.1232
     42 H10        -1.1460   -1.7274    0.5180 H         1 <0>         0.0861
     43 H11        -2.0553   -0.1973    0.5352 H         1 <0>         0.0883
     44 H12        -1.0189   -3.0355   -1.4410 H         1 <0>         0.1324
     45 H13        -2.8764   -1.6593   -5.0252 H         1 <0>         0.1336
     46 H14        -3.2777    0.5320   -3.9772 H         1 <0>         0.1352
     47 H15        -0.4331   -5.4507   -7.9875 H         1 <0>         0.0737
     48 H16        -1.3256   -3.9126   -7.9112 H         1 <0>         0.0550
     49 H17         1.0104   -3.5691   -8.2729 H         1 <0>         0.3839
     50 H18        -2.7131   -7.5655   -6.7347 H         1 <0>         0.3831
     51 H19        -3.8555   -7.6058   -5.0564 H         1 <0>         0.3833
     52 H20        -4.1336   -5.4146   -2.4251 H         1 <0>         0.3906
     53 H21         4.7979    0.7076    0.8500 H         1 <0>         0.0721
     54 H22         4.7806    0.7165   -0.9299 H         1 <0>         0.0798
     55 H23         6.8762    1.7093   -0.1448 H         1 <0>         0.0747
     56 H24         5.8702    2.9798   -0.8810 H         1 <0>         0.0644
     57 H25         7.7062    4.0259    0.3879 H         1 <0>         0.1112
     58 H26         7.3852    3.4800    3.4597 H         1 <0>         0.1002
     59 H27         8.8416    4.2641    2.6440 H         1 <0>         0.1006
     60 H28         7.3522    6.1225    1.7710 H         1 <0>         0.1014
     61 H29         5.8957    5.3385    2.5868 H         1 <0>         0.1013
@<TRIPOS>BOND
     1    1    6 ar
     2    1    2 ar
     3    1   38 1
     4    2    3 ar
     5    2   39 1
     6    3    4 ar
     7    3   31 1
     8    4    5 ar
     9    4   40 1
    10    5    6 ar
    11    5   41 1
    12    6    7 1
    13    7    8 1
    14    7   42 1
    15    7   43 1
    16    8   13 ar
    17    8    9 ar
    18    9   10 ar
    19    9   44 1
    20   10   11 ar
    21   10   15 1
    22   11   12 ar
    23   11   45 1
    24   12   13 ar
    25   12   46 1
    26   13   14 1
    27   15   16 1
    28   15   25 1
    29   15   17 1
    30   17   18 1
    31   17   19 1
    32   17   30 1
    33   19   20 1
    34   19   21 1
    35   19   29 1
    36   21   22 1
    37   21   23 1
    38   21   28 1
    39   23   24 1
    40   23   25 1
    41   23   26 1
    42   26   27 1
    43   26   47 1
    44   26   48 1
    45   27   49 1
    46   28   50 1
    47   29   51 1
    48   30   52 1
    49   31   32 1
    50   32   33 1
    51   32   53 1
    52   32   54 1
    53   33   34 1
    54   33   55 1
    55   33   56 1
    56   34   35 1
    57   35   37 1
    58   35   36 1
    59   35   57 1
    60   36   37 1
    61   36   58 1
    62   36   59 1
    63   37   60 1
    64   37   61 1
@<TRIPOS>MOLECULE
ZINC03875408
   55    57     0     0     0
SMALL
USER_CHARGES

@<TRIPOS>ATOM
      1 C1         -0.0167    1.3784    0.0096 C.ar      1 <0>        -0.0985
      2 C2          1.1695    2.0865    0.0021 C.ar      1 <0>        -0.1418
      3 C3          2.3802    1.4093   -0.0131 C.ar      1 <0>         0.0997
      4 C4          2.3963    0.0221   -0.0206 C.ar      1 <0>        -0.1429
      5 C5          1.2074   -0.6814   -0.0130 C.ar      1 <0>        -0.1009
      6 C6          0.0021   -0.0041    0.0020 C.ar      1 <0>        -0.0890
      7 C7         -1.2934   -0.7740    0.0107 C.3       1 <0>        -0.0740
      8 C8         -1.7461   -1.0268   -1.4288 C.3       1 <0>        -0.1470
      9 C9         -3.0415   -1.7967   -1.4201 C.2       1 <0>         0.4003
     10 O1         -3.5528   -2.1124   -0.3655 O.2       1 <0>        -0.4431
     11 C10        -3.6821   -2.1633   -2.6814 C.ar      1 <0>        -0.2419
     12 C11        -3.0901   -1.8044   -3.9072 C.ar      1 <0>         0.2081
     13 C12        -3.7036   -2.1555   -5.0944 C.ar      1 <0>        -0.2186
     14 C13        -4.9010   -2.8605   -5.0811 C.ar      1 <0>         0.2000
     15 C14        -5.4934   -3.2188   -3.8767 C.ar      1 <0>        -0.2385
     16 C15        -4.8920   -2.8823   -2.6785 C.ar      1 <0>         0.2154
     17 O2         -5.4688   -3.2388   -1.5041 O.3       1 <0>        -0.2615
     18 C16        -6.6959   -3.9672   -1.5787 C.3       1 <0>         0.2189
     19 H1         -6.5547   -4.8552   -2.1948 H         1 <0>         0.0786
     20 C17        -7.1276   -4.3858   -0.1708 C.3       1 <0>         0.0637
     21 H2         -7.2296   -3.5008    0.4572 H         1 <0>         0.0891
     22 C18        -8.4731   -5.1132   -0.2529 C.3       1 <0>         0.0865
     23 H3         -8.3597   -6.0246   -0.8399 H         1 <0>         0.0785
     24 C19        -9.4975   -4.1944   -0.9258 C.3       1 <0>         0.0894
     25 H4         -9.6474   -3.3055   -0.3131 H         1 <0>         0.0819
     26 C20        -8.9743   -3.7831   -2.3046 C.3       1 <0>         0.1090
     27 H5         -8.8631   -4.6688   -2.9302 H         1 <0>         0.0835
     28 O3         -7.7064   -3.1402   -2.1593 O.3       1 <0>        -0.3707
     29 C21        -9.9645   -2.8174   -2.9587 C.3       1 <0>         0.0899
     30 O4         -9.5355   -2.5248   -4.2900 O.3       1 <0>        -0.5644
     31 O5        -10.7381   -4.8885   -1.0720 O.3       1 <0>        -0.5491
     32 O6         -8.9183   -5.4449    1.0639 O.3       1 <0>        -0.5531
     33 O7         -6.1450   -5.2587    0.3901 O.3       1 <0>        -0.5542
     34 O8         -5.4958   -3.2007   -6.2521 O.3       1 <0>        -0.4888
     35 O9         -1.9217   -1.1160   -3.9227 O.3       1 <0>        -0.4825
     36 O10         3.5484    2.1036   -0.0209 O.3       1 <0>        -0.5007
     37 H6         -0.9594    1.9052    0.0259 H         1 <0>         0.1267
     38 H7          1.1543    3.1664    0.0076 H         1 <0>         0.1284
     39 H8          3.3375   -0.5074   -0.0328 H         1 <0>         0.1280
     40 H9          1.2194   -1.7613   -0.0189 H         1 <0>         0.1261
     41 H10        -1.1460   -1.7274    0.5180 H         1 <0>         0.0778
     42 H11        -2.0553   -0.1973    0.5352 H         1 <0>         0.0786
     43 H12        -1.8934   -0.0734   -1.9361 H         1 <0>         0.1101
     44 H13        -0.9842   -1.6035   -1.9533 H         1 <0>         0.0946
     45 H14        -3.2512   -1.8809   -6.0358 H         1 <0>         0.1457
     46 H15        -6.4243   -3.7663   -3.8766 H         1 <0>         0.1474
     47 H16       -10.9532   -3.2753   -2.9880 H         1 <0>         0.0792
     48 H17       -10.0084   -1.8948   -2.3801 H         1 <0>         0.0575
     49 H18       -10.1175   -1.9168   -4.7661 H         1 <0>         0.3856
     50 H19       -11.1251   -5.1826   -0.2361 H         1 <0>         0.3959
     51 H20        -8.3127   -6.0207    1.5504 H         1 <0>         0.3964
     52 H21        -5.2659   -4.8633    0.4675 H         1 <0>         0.3987
     53 H22        -5.2201   -4.0606   -6.5980 H         1 <0>         0.4002
     54 H23        -1.1345   -1.6775   -3.9334 H         1 <0>         0.4007
     55 H24         3.8951    2.3001    0.8601 H         1 <0>         0.3908
@<TRIPOS>BOND
     1    1    6 ar
     2    1    2 ar
     3    1   37 1
     4    2    3 ar
     5    2   38 1
     6    3    4 ar
     7    3   36 1
     8    4    5 ar
     9    4   39 1
    10    5    6 ar
    11    5   40 1
    12    6    7 1
    13    7    8 1
    14    7   41 1
    15    7   42 1
    16    8    9 1
    17    8   43 1
    18    8   44 1
    19    9   10 2
    20    9   11 1
    21   11   16 ar
    22   11   12 ar
    23   12   13 ar
    24   12   35 1
    25   13   14 ar
    26   13   45 1
    27   14   15 ar
    28   14   34 1
    29   15   16 ar
    30   15   46 1
    31   16   17 1
    32   17   18 1
    33   18   19 1
    34   18   28 1
    35   18   20 1
    36   20   21 1
    37   20   22 1
    38   20   33 1
    39   22   23 1
    40   22   24 1
    41   22   32 1
    42   24   25 1
    43   24   26 1
    44   24   31 1
    45   26   27 1
    46   26   28 1
    47   26   29 1
    48   29   30 1
    49   29   47 1
    50   29   48 1
    51   30   49 1
    52   31   50 1
    53   32   51 1
    54   33   52 1
    55   34   53 1
    56   35   54 1
    57   36   55 1
@<TRIPOS>MOLECULE
ZINC03819138
   53    55     0     0     0
SMALL
USER_CHARGES
2-[4-chloro-3-[(4-ethoxyphenyl)methyl]phenyl]-6-(hydroxymethyl)tetrahydropyran-3,4,5-triol
@<TRIPOS>ATOM
      1 C1         -0.0187    1.5258    0.0104 C.3       1 <0>        -0.1531
      2 C2          0.0021   -0.0041    0.0020 C.3       1 <0>         0.0543
      3 O1          0.6709   -0.4649   -1.1737 O.3       1 <0>        -0.3170
      4 C3          0.7768   -1.8100   -1.3361 C.ar      1 <0>         0.1297
      5 C4          0.2527   -2.6686   -0.3807 C.ar      1 <0>        -0.2083
      6 C5          0.3569   -4.0356   -0.5508 C.ar      1 <0>        -0.0705
      7 C6          0.9921   -4.5482   -1.6669 C.ar      1 <0>        -0.1179
      8 C7          1.5202   -3.6945   -2.6177 C.ar      1 <0>        -0.0727
      9 C8          1.4140   -2.3268   -2.4548 C.ar      1 <0>        -0.1515
     10 C9          1.1094   -6.0397   -1.8470 C.3       1 <0>        -0.0392
     11 C10         2.3855   -6.5241   -1.2084 C.ar      1 <0>        -0.0671
     12 C11         2.3541   -7.1035    0.0463 C.ar      1 <0>        -0.0744
     13 C12         3.5239   -7.5521    0.6302 C.ar      1 <0>        -0.0675
     14 C13         4.7274   -7.4120   -0.0357 C.ar      1 <0>        -0.0847
     15 C14         4.7608   -6.8282   -1.2878 C.ar      1 <0>        -0.1101
     16 C15         3.5894   -6.3837   -1.8751 C.ar      1 <0>        -0.0231
     17 Cl1         3.6305   -5.6507   -3.4482 Cl        1 <0>        -0.0639
     18 C16         3.4882   -8.1884    1.9958 C.3       1 <0>         0.1396
     19 H1          2.5674   -7.9044    2.5052 H         1 <0>         0.0821
     20 C17         3.5429   -9.7114    1.8509 C.3       1 <0>         0.0969
     21 H2          4.4437   -9.9934    1.3058 H         1 <0>         0.0749
     22 C18         3.5670  -10.3485    3.2438 C.3       1 <0>         0.0383
     23 H3          2.6439  -10.1076    3.7709 H         1 <0>         0.0787
     24 C19         4.7627   -9.7955    4.0254 C.3       1 <0>         0.0486
     25 H4          5.6882  -10.0792    3.5242 H         1 <0>         0.0797
     26 C20         4.6609   -8.2692    4.0862 C.3       1 <0>         0.0987
     27 H5          3.7554   -7.9864    4.6231 H         1 <0>         0.0804
     28 O2          4.6116   -7.7431    2.7585 O.3       1 <0>        -0.3417
     29 C21         5.8828   -7.7047    4.8138 C.3       1 <0>         0.0898
     30 O3          5.7325   -6.2925    4.9722 O.3       1 <0>        -0.5653
     31 O4          4.7539  -10.3280    5.3514 O.3       1 <0>        -0.5522
     32 O5          3.6910  -11.7667    3.1206 O.3       1 <0>        -0.5572
     33 O6          2.3903  -10.1651    1.1383 O.3       1 <0>        -0.5476
     34 H6          1.0039    1.9031    0.0027 H         1 <0>         0.0666
     35 H7         -0.5459    1.8868   -0.8726 H         1 <0>         0.0665
     36 H8         -0.5289    1.8773    0.9072 H         1 <0>         0.0788
     37 H9          0.5293   -0.3651    0.8851 H         1 <0>         0.0617
     38 H10        -1.0205   -0.3814    0.0098 H         1 <0>         0.0617
     39 H11        -0.2399   -2.2687    0.4932 H         1 <0>         0.1267
     40 H12        -0.0548   -4.7045    0.1905 H         1 <0>         0.1233
     41 H13         2.0159   -4.0973   -3.4886 H         1 <0>         0.1332
     42 H14         1.8270   -1.6604   -3.1976 H         1 <0>         0.1294
     43 H15         0.2580   -6.5307   -1.3756 H         1 <0>         0.0862
     44 H16         1.1225   -6.2773   -2.9108 H         1 <0>         0.0883
     45 H17         1.4148   -7.2091    0.5688 H         1 <0>         0.1324
     46 H18         5.6416   -7.7593    0.4226 H         1 <0>         0.1338
     47 H19         5.7011   -6.7186   -1.8077 H         1 <0>         0.1353
     48 H20         5.9704   -8.1730    5.7941 H         1 <0>         0.0737
     49 H21         6.7803   -7.9115    4.2308 H         1 <0>         0.0550
     50 H22         6.4722   -5.8668    5.4267 H         1 <0>         0.3840
     51 H23         4.8157  -11.2923    5.3885 H         1 <0>         0.3831
     52 H24         3.7187  -12.2341    3.9667 H         1 <0>         0.3833
     53 H25         2.3592  -11.1230    1.0096 H         1 <0>         0.3906
@<TRIPOS>BOND
     1    1    2 1
     2    1   34 1
     3    1   35 1
     4    1   36 1
     5    2    3 1
     6    2   37 1
     7    2   38 1
     8    3    4 1
     9    4    9 ar
    10    4    5 ar
    11    5    6 ar
    12    5   39 1
    13    6    7 ar
    14    6   40 1
    15    7    8 ar
    16    7   10 1
    17    8    9 ar
    18    8   41 1
    19    9   42 1
    20   10   11 1
    21   10   43 1
    22   10   44 1
    23   11   16 ar
    24   11   12 ar
    25   12   13 ar
    26   12   45 1
    27   13   14 ar
    28   13   18 1
    29   14   15 ar
    30   14   46 1
    31   15   16 ar
    32   15   47 1
    33   16   17 1
    34   18   19 1
    35   18   28 1
    36   18   20 1
    37   20   21 1
    38   20   22 1
    39   20   33 1
    40   22   23 1
    41   22   24 1
    42   22   32 1
    43   24   25 1
    44   24   26 1
    45   24   31 1
    46   26   27 1
    47   26   28 1
    48   26   29 1
    49   29   30 1
    50   29   48 1
    51   29   49 1
    52   30   50 1
    53   31   51 1
    54   32   52 1
    55   33   53 1
