@<TRIPOS>MOLECULE
ZINC03831531
   50    52     0     0     0
SMALL
USER_CHARGES

@<TRIPOS>ATOM
      1 C1          2.7141   -2.0171    1.0973 C.3       1 <0>        -0.1034
      2 C2          1.3593   -1.9564    0.4401 C.2       1 <0>        -0.0875
      3 C3          1.1444   -2.5551   -0.7816 C.2       1 <0>        -0.1542
      4 C4         -0.0885   -2.4823   -1.3464 C.2       1 <0>        -0.1580
      5 S1         -1.0004   -1.5412   -0.1341 S.3       1 <0>         0.0388
      6 C5          0.3166   -1.3097    1.0489 C.2       1 <0>        -0.1285
      7 C6          0.2892   -0.6031    2.3465 C.2       1 <0>         0.0736
      8 C7          0.3824    0.7377    2.3840 C.2       1 <0>        -0.1329
      9 C8          0.3918    1.5285    1.1012 C.3       1 <0>        -0.1183
     10 C9         -0.7567    2.5393    1.1168 C.3       1 <0>        -0.0062
     11 N1         -0.7759    3.2784   -0.1526 N.4       1 <0>        -0.3809
     12 C10        -1.1324    2.3641   -1.2441 C.3       1 <0>        -0.0090
     13 C11        -1.0748    3.1101   -2.5788 C.3       1 <0>        -0.1441
     14 C12        -2.0632    4.2794   -2.5469 C.3       1 <0>        -0.1090
     15 C13        -1.7272    5.1867   -1.3599 C.3       1 <0>        -0.1782
     16 H1         -0.7321    5.6102   -1.4957 H         1 <0>         0.0846
     17 C14        -1.7606    4.3637   -0.0703 C.3       1 <0>         0.0160
     18 C15        -2.7401    6.2993   -1.2743 C.2       1 <0>         0.4994
     19 O1         -3.6471    6.3617   -2.0867 O.co2     1 <0>        -0.6676
     20 O2         -2.6527    7.1369   -0.3926 O.co2     1 <0>        -0.6815
     21 C16         0.1594   -1.3702    3.6029 C.2       1 <0>        -0.1394
     22 C17        -0.0698   -2.7093    3.7768 C.2       1 <0>        -0.0862
     23 C18        -0.1525   -3.2058    5.0590 C.2       1 <0>        -0.1590
     24 C19        -0.0050   -2.3564    6.1082 C.2       1 <0>        -0.1569
     25 S2          0.2683   -0.7939    5.2892 S.3       1 <0>         0.0613
     26 C20        -0.2290   -3.6219    2.5881 C.3       1 <0>        -0.1114
     27 H2          2.7419   -2.8533    1.7959 H         1 <0>         0.0729
     28 H3          3.4816   -2.1543    0.3356 H         1 <0>         0.0689
     29 H4          2.8987   -1.0875    1.6358 H         1 <0>         0.0676
     30 H5          1.9462   -3.0755   -1.2842 H         1 <0>         0.1399
     31 H6         -0.4294   -2.8888   -2.2871 H         1 <0>         0.1906
     32 H7          0.4506    1.2479    3.3334 H         1 <0>         0.1362
     33 H8          1.3401    2.0576    1.0074 H         1 <0>         0.1002
     34 H9          0.2683    0.8514    0.2560 H         1 <0>         0.0944
     35 H10        -1.7025    2.0127    1.2449 H         1 <0>         0.1279
     36 H11        -0.6150    3.2375    1.9417 H         1 <0>         0.1334
     37 H12        -0.4300    1.5308   -1.2635 H         1 <0>         0.1200
     38 H13        -2.1414    1.9839   -1.0841 H         1 <0>         0.1254
     39 H14        -0.0661    3.4905   -2.7400 H         1 <0>         0.0798
     40 H15        -1.3416    2.4300   -3.3878 H         1 <0>         0.1031
     41 H16        -1.9855    4.8478   -3.4737 H         1 <0>         0.0880
     42 H17        -3.0777    3.8962   -2.4370 H         1 <0>         0.0796
     43 H18        -2.7562    3.9410    0.0647 H         1 <0>         0.1211
     44 H19        -1.5220    5.0068    0.7769 H         1 <0>         0.1319
     45 H20        -0.3328   -4.2572    5.2277 H         1 <0>         0.1384
     46 H21        -0.0401   -2.5715    7.1660 H         1 <0>         0.1910
     47 H22         0.7545   -3.9162    2.2218 H         1 <0>         0.0708
     48 H23        -0.7872   -4.5100    2.8841 H         1 <0>         0.0649
     49 H24        -0.7694   -3.0994    1.7987 H         1 <0>         0.0750
     50 H25         0.1384    3.6677   -0.3277 H         1 <0>         0.4177
@<TRIPOS>BOND
     1    1    2 1
     2    1   27 1
     3    1   28 1
     4    1   29 1
     5    2    6 2
     6    2    3 1
     7    3    4 2
     8    3   30 1
     9    4    5 1
    10    4   31 1
    11    5    6 1
    12    6    7 1
    13    7    8 2
    14    7   21 1
    15    8    9 1
    16    8   32 1
    17    9   10 1
    18    9   33 1
    19    9   34 1
    20   10   11 1
    21   10   35 1
    22   10   36 1
    23   11   17 1
    24   11   12 1
    25   11   50 1
    26   12   13 1
    27   12   37 1
    28   12   38 1
    29   13   14 1
    30   13   39 1
    31   13   40 1
    32   14   15 1
    33   14   41 1
    34   14   42 1
    35   15   16 1
    36   15   17 1
    37   15   18 1
    38   17   43 1
    39   17   44 1
    40   18   19 2
    41   18   20 1
    42   21   25 1
    43   21   22 2
    44   22   23 1
    45   22   26 1
    46   23   24 2
    47   23   45 1
    48   24   25 1
    49   24   46 1
    50   26   47 1
    51   26   48 1
    52   26   49 1
@<TRIPOS>MOLECULE
ZINC02379523
   50    52     0     0     0
SMALL
USER_CHARGES

@<TRIPOS>ATOM
      1 C1         -0.0167    1.3791    0.0096 C.ar      1 <0>        -0.1129
      2 C2          1.1686    2.0923    0.0021 C.ar      1 <0>        -0.1188
      3 C3          2.3774    1.4266   -0.0135 C.ar      1 <0>        -0.1116
      4 C4          2.4024    0.0329   -0.0212 C.ar      1 <0>        -0.0580
      5 C5          1.2049   -0.6804   -0.0131 C.ar      1 <0>        -0.1009
      6 C6          0.0021   -0.0041    0.0020 C.ar      1 <0>        -0.1150
      7 C7          3.6982   -0.6881   -0.0385 C.2       1 <0>        -0.0169
      8 C8          4.5318   -0.5911    1.0039 C.2       1 <0>        -0.1462
      9 C9          4.1539    0.2509    2.1952 C.3       1 <0>        -0.1193
     10 C10         4.2253   -0.6003    3.4646 C.3       1 <0>        -0.0044
     11 N1          3.8569    0.2205    4.6259 N.4       1 <0>        -0.3838
     12 C11         4.8510    1.2853    4.8058 C.3       1 <0>        -0.0079
     13 C12         4.4291    2.1918    5.9642 C.3       1 <0>        -0.1425
     14 C13         4.3317    1.3603    7.2465 C.3       1 <0>        -0.1138
     15 C14         3.3476    0.2084    7.0227 C.3       1 <0>        -0.1787
     16 H1          2.3545    0.6115    6.8244 H         1 <0>         0.0843
     17 C15         3.8096   -0.6245    5.8251 C.3       1 <0>         0.0195
     18 C16         3.3015   -0.6603    8.2533 C.2       1 <0>         0.5026
     19 O1          2.9596   -0.1848    9.3227 O.co2     1 <0>        -0.6689
     20 O2          3.6062   -1.8385    8.1795 O.co2     1 <0>        -0.6855
     21 C17         4.0701   -1.5166   -1.2108 C.ar      1 <0>        -0.0588
     22 C18         4.2877   -0.9173   -2.4503 C.ar      1 <0>        -0.1000
     23 C19         4.6341   -1.6932   -3.5376 C.ar      1 <0>        -0.1178
     24 C20         4.7650   -3.0634   -3.3993 C.ar      1 <0>        -0.1126
     25 C21         4.5499   -3.6637   -2.1718 C.ar      1 <0>        -0.1180
     26 C22         4.2091   -2.8970   -1.0760 C.ar      1 <0>        -0.1048
     27 H2         -0.9603    1.9042    0.0260 H         1 <0>         0.1253
     28 H3          1.1480    3.1720    0.0082 H         1 <0>         0.1259
     29 H4          3.3022    1.9844   -0.0200 H         1 <0>         0.1229
     30 H5          1.2184   -1.7603   -0.0194 H         1 <0>         0.1238
     31 H6         -0.9264   -0.5557    0.0079 H         1 <0>         0.1267
     32 H7          5.4755   -1.1162    0.9913 H         1 <0>         0.1299
     33 H8          4.8444    1.0899    2.2810 H         1 <0>         0.0951
     34 H9          3.1390    0.6273    2.0668 H         1 <0>         0.0949
     35 H10         3.5348   -1.4392    3.3788 H         1 <0>         0.1285
     36 H11         5.2402   -0.9767    3.5930 H         1 <0>         0.1280
     37 H12         5.8218    0.8418    5.0270 H         1 <0>         0.1246
     38 H13         4.9215    1.8742    3.8913 H         1 <0>         0.1218
     39 H14         5.1694    2.9807    6.0973 H         1 <0>         0.1039
     40 H15         3.4585    2.6360    5.7438 H         1 <0>         0.0817
     41 H16         5.3136    0.9576    7.4953 H         1 <0>         0.0730
     42 H17         3.9769    1.9894    8.0628 H         1 <0>         0.0931
     43 H18         3.1112   -1.4456    5.6632 H         1 <0>         0.1271
     44 H19         4.8026   -1.0273    6.0247 H         1 <0>         0.1270
     45 H20         4.1851    0.1523   -2.5596 H         1 <0>         0.1217
     46 H21         4.8029   -1.2300   -4.4985 H         1 <0>         0.1255
     47 H22         5.0359   -3.6668   -4.2531 H         1 <0>         0.1248
     48 H23         4.6531   -4.7339   -2.0697 H         1 <0>         0.1263
     49 H24         4.0457   -3.3662   -0.1171 H         1 <0>         0.1235
     50 H25         2.9494    0.6332    4.4704 H         1 <0>         0.4160
@<TRIPOS>BOND
     1    1    6 ar
     2    1    2 ar
     3    1   27 1
     4    2    3 ar
     5    2   28 1
     6    3    4 ar
     7    3   29 1
     8    4    5 ar
     9    4    7 1
    10    5    6 ar
    11    5   30 1
    12    6   31 1
    13    7    8 2
    14    7   21 1
    15    8    9 1
    16    8   32 1
    17    9   10 1
    18    9   33 1
    19    9   34 1
    20   10   11 1
    21   10   35 1
    22   10   36 1
    23   11   17 1
    24   11   12 1
    25   11   50 1
    26   12   13 1
    27   12   37 1
    28   12   38 1
    29   13   14 1
    30   13   39 1
    31   13   40 1
    32   14   15 1
    33   14   41 1
    34   14   42 1
    35   15   16 1
    36   15   17 1
    37   15   18 1
    38   17   43 1
    39   17   44 1
    40   18   19 2
    41   18   20 1
    42   21   26 ar
    43   21   22 ar
    44   22   23 ar
    45   22   45 1
    46   23   24 ar
    47   23   46 1
    48   24   25 ar
    49   24   47 1
    50   25   26 ar
    51   25   48 1
    52   26   49 1
@<TRIPOS>MOLECULE
ZINC03995837
   50    52     0     0     0
SMALL
USER_CHARGES

@<TRIPOS>ATOM
      1 C1         -0.0167    1.3791    0.0096 C.ar      1 <0>        -0.1130
      2 C2          1.1686    2.0923    0.0021 C.ar      1 <0>        -0.1187
      3 C3          2.3774    1.4266   -0.0135 C.ar      1 <0>        -0.1122
      4 C4          2.4024    0.0329   -0.0212 C.ar      1 <0>        -0.0571
      5 C5          1.2049   -0.6804   -0.0131 C.ar      1 <0>        -0.1013
      6 C6          0.0021   -0.0041    0.0020 C.ar      1 <0>        -0.1151
      7 C7          3.6982   -0.6881   -0.0385 C.2       1 <0>        -0.0182
      8 C8          4.5318   -0.5911    1.0039 C.2       1 <0>        -0.1452
      9 C9          4.1539    0.2509    2.1952 C.3       1 <0>        -0.1201
     10 C10         4.2253   -0.6003    3.4646 C.3       1 <0>        -0.0056
     11 N1          3.8569    0.2205    4.6259 N.4       1 <0>        -0.3814
     12 C11         2.4541    0.6352    4.5048 C.3       1 <0>        -0.0072
     13 C12         2.0883    1.5568    5.6702 C.3       1 <0>        -0.1445
     14 C13         2.2882    0.8060    6.9899 C.3       1 <0>        -0.1091
     15 C14         3.7360    0.3138    7.0715 C.3       1 <0>        -0.1785
     16 H1          4.4112    1.1694    7.0826 H         1 <0>         0.0845
     17 C15         4.0408   -0.5618    5.8542 C.3       1 <0>         0.0163
     18 C16         3.9235   -0.4916    8.3314 C.2       1 <0>         0.4992
     19 O1          2.9867   -0.6572    9.0940 O.co2     1 <0>        -0.6676
     20 O2          5.0118   -0.9774    8.5881 O.co2     1 <0>        -0.6815
     21 C17         4.0701   -1.5166   -1.2108 C.ar      1 <0>        -0.0588
     22 C18         4.2877   -0.9173   -2.4503 C.ar      1 <0>        -0.0999
     23 C19         4.6341   -1.6932   -3.5376 C.ar      1 <0>        -0.1176
     24 C20         4.7650   -3.0634   -3.3993 C.ar      1 <0>        -0.1125
     25 C21         4.5499   -3.6637   -2.1718 C.ar      1 <0>        -0.1180
     26 C22         4.2091   -2.8970   -1.0760 C.ar      1 <0>        -0.1050
     27 H2         -0.9603    1.9042    0.0260 H         1 <0>         0.1253
     28 H3          1.1480    3.1720    0.0082 H         1 <0>         0.1261
     29 H4          3.3022    1.9844   -0.0200 H         1 <0>         0.1233
     30 H5          1.2184   -1.7603   -0.0194 H         1 <0>         0.1235
     31 H6         -0.9264   -0.5557    0.0079 H         1 <0>         0.1265
     32 H7          5.4755   -1.1162    0.9913 H         1 <0>         0.1303
     33 H8          4.8444    1.0899    2.2810 H         1 <0>         0.0951
     34 H9          3.1390    0.6273    2.0668 H         1 <0>         0.0964
     35 H10         3.5348   -1.4392    3.3788 H         1 <0>         0.1264
     36 H11         5.2402   -0.9767    3.5930 H         1 <0>         0.1304
     37 H12         2.3127    1.1666    3.5637 H         1 <0>         0.1209
     38 H13         1.8124   -0.2457    4.5236 H         1 <0>         0.1235
     39 H14         2.7293    2.4382    5.6522 H         1 <0>         0.0797
     40 H15         1.0459    1.8622    5.5795 H         1 <0>         0.1029
     41 H16         2.0832    1.4758    7.8250 H         1 <0>         0.0879
     42 H17         1.6105   -0.0468    7.0303 H         1 <0>         0.0793
     43 H18         3.3652   -1.4172    5.8442 H         1 <0>         0.1204
     44 H19         5.0708   -0.9141    5.9093 H         1 <0>         0.1312
     45 H20         4.1851    0.1523   -2.5596 H         1 <0>         0.1218
     46 H21         4.8029   -1.2300   -4.4985 H         1 <0>         0.1257
     47 H22         5.0359   -3.6668   -4.2531 H         1 <0>         0.1249
     48 H23         4.6531   -4.7339   -2.0697 H         1 <0>         0.1263
     49 H24         4.0457   -3.3662   -0.1171 H         1 <0>         0.1231
     50 H25         4.4459    1.0391    4.6584 H         1 <0>         0.4174
@<TRIPOS>BOND
     1    1    6 ar
     2    1    2 ar
     3    1   27 1
     4    2    3 ar
     5    2   28 1
     6    3    4 ar
     7    3   29 1
     8    4    5 ar
     9    4    7 1
    10    5    6 ar
    11    5   30 1
    12    6   31 1
    13    7    8 2
    14    7   21 1
    15    8    9 1
    16    8   32 1
    17    9   10 1
    18    9   33 1
    19    9   34 1
    20   10   11 1
    21   10   35 1
    22   10   36 1
    23   11   17 1
    24   11   12 1
    25   11   50 1
    26   12   13 1
    27   12   37 1
    28   12   38 1
    29   13   14 1
    30   13   39 1
    31   13   40 1
    32   14   15 1
    33   14   41 1
    34   14   42 1
    35   15   16 1
    36   15   17 1
    37   15   18 1
    38   17   43 1
    39   17   44 1
    40   18   19 2
    41   18   20 1
    42   21   26 ar
    43   21   22 ar
    44   22   23 ar
    45   22   45 1
    46   23   24 ar
    47   23   46 1
    48   24   25 ar
    49   24   47 1
    50   25   26 ar
    51   25   48 1
    52   26   49 1
@<TRIPOS>MOLECULE
ZINC01534967
   48    50     0     0     0
SMALL
USER_CHARGES

@<TRIPOS>ATOM
      1 C1          0.2838    1.1684   -1.7618 C.ar      1 <0>        -0.0932
      2 C2          1.4403    1.9014   -1.5643 C.ar      1 <0>        -0.1235
      3 C3          2.5517    1.3046   -1.0052 C.ar      1 <0>        -0.0727
      4 C4          2.5074   -0.0401   -0.6386 C.ar      1 <0>        -0.0624
      5 C5          1.3385   -0.7737   -0.8397 C.ar      1 <0>        -0.0870
      6 C6          0.2337   -0.1660   -1.4002 C.ar      1 <0>        -0.1232
      7 C7          3.6974   -0.6870   -0.0382 C.2       1 <0>         0.2395
      8 N1          4.6955    0.0405    0.3738 N.2       1 <0>        -0.3213
      9 O1          5.8835   -0.5806    0.8297 O.3       1 <0>        -0.2502
     10 C8          6.8943    0.3374    1.2512 C.3       1 <0>         0.0393
     11 C9          8.1256   -0.4401    1.7207 C.3       1 <0>         0.0034
     12 N2          8.7090   -1.1659    0.5845 N.4       1 <0>        -0.3879
     13 C10         9.8269   -1.9992    1.0544 C.3       1 <0>        -0.0033
     14 C11        10.2466   -2.9387   -0.0790 C.3       1 <0>        -0.1154
     15 C12        10.4413   -2.1471   -1.3431 C.2       1 <0>        -0.1318
     16 C13         9.9716   -0.9189   -1.4865 C.2       1 <0>        -0.2017
     17 C14         9.2112   -0.2061   -0.4055 C.3       1 <0>         0.0492
     18 C15        10.2037   -0.2229   -2.7569 C.2       1 <0>         0.5174
     19 O2         10.8202   -0.7793   -3.6557 O.co2     1 <0>        -0.6657
     20 O3          9.7807    0.9141   -2.9178 O.co2     1 <0>        -0.6802
     21 C16         3.7517   -2.1618    0.0933 C.ar      1 <0>        -0.1011
     22 C17         3.2279   -2.9740   -0.9120 C.ar      1 <0>        -0.0869
     23 C18         3.2818   -4.3469   -0.7840 C.ar      1 <0>        -0.1204
     24 C19         3.8537   -4.9178    0.3389 C.ar      1 <0>        -0.0984
     25 C20         4.3746   -4.1172    1.3397 C.ar      1 <0>        -0.1268
     26 C21         4.3321   -2.7432    1.2202 C.ar      1 <0>        -0.0818
     27 H1         -0.5849    1.6409   -2.1960 H         1 <0>         0.1293
     28 H2          1.4735    2.9428   -1.8487 H         1 <0>         0.1314
     29 H3          3.4543    1.8777   -0.8522 H         1 <0>         0.1335
     30 H4          1.2984   -1.8156   -0.5581 H         1 <0>         0.1330
     31 H5         -0.6719   -0.7332   -1.5568 H         1 <0>         0.1314
     32 H6          7.1688    0.9836    0.4174 H         1 <0>         0.0886
     33 H7          6.5137    0.9453    2.0720 H         1 <0>         0.1011
     34 H8          8.8619    0.2548    2.1246 H         1 <0>         0.1468
     35 H9          7.8336   -1.1503    2.4943 H         1 <0>         0.1340
     36 H10        10.6669   -1.3621    1.3314 H         1 <0>         0.1287
     37 H11         9.5091   -2.5853    1.9167 H         1 <0>         0.1272
     38 H12        11.1805   -3.4338    0.1868 H         1 <0>         0.1169
     39 H13         9.4705   -3.6879   -0.2357 H         1 <0>         0.0960
     40 H14        10.9835   -2.5969   -2.1617 H         1 <0>         0.1458
     41 H15         8.3707    0.3283   -0.8483 H         1 <0>         0.1398
     42 H16         9.8701    0.5088    0.0873 H         1 <0>         0.1317
     43 H17         2.7805   -2.5294   -1.7887 H         1 <0>         0.1329
     44 H18         2.8764   -4.9770   -1.5619 H         1 <0>         0.1311
     45 H19         3.8933   -5.9928    0.4347 H         1 <0>         0.1277
     46 H20         4.8192   -4.5686    2.2143 H         1 <0>         0.1265
     47 H21         4.7431   -2.1193    2.0001 H         1 <0>         0.1256
     48 H22         8.0050   -1.7511    0.1604 H         1 <0>         0.4269
@<TRIPOS>BOND
     1    1    6 ar
     2    1    2 ar
     3    1   27 1
     4    2    3 ar
     5    2   28 1
     6    3    4 ar
     7    3   29 1
     8    4    5 ar
     9    4    7 1
    10    5    6 ar
    11    5   30 1
    12    6   31 1
    13    7    8 2
    14    7   21 1
    15    8    9 1
    16    9   10 1
    17   10   11 1
    18   10   32 1
    19   10   33 1
    20   11   12 1
    21   11   34 1
    22   11   35 1
    23   12   17 1
    24   12   13 1
    25   12   48 1
    26   13   14 1
    27   13   36 1
    28   13   37 1
    29   14   15 1
    30   14   38 1
    31   14   39 1
    32   15   16 2
    33   15   40 1
    34   16   17 1
    35   16   18 1
    36   17   41 1
    37   17   42 1
    38   18   19 2
    39   18   20 1
    40   21   26 ar
    41   21   22 ar
    42   22   23 ar
    43   22   43 1
    44   23   24 ar
    45   23   44 1
    46   24   25 ar
    47   24   45 1
    48   25   26 ar
    49   25   46 1
    50   26   47 1
@<TRIPOS>MOLECULE
ZINC02141051
   20    20     0     0     0
SMALL
USER_CHARGES

@<TRIPOS>ATOM
      1 C1         -0.0187    1.5260    0.0104 C.3       1 <0>        -0.1468
      2 C2          1.4200    2.0506   -0.0005 C.3       1 <0>        -0.1123
      3 C3          2.1493    1.4868   -1.2234 C.3       1 <0>        -0.1812
      4 H1          1.6682    1.8477   -2.1325 H         1 <0>         0.0858
      5 C4          2.0897   -0.0418   -1.1861 C.3       1 <0>         0.0139
      6 N1          0.6893   -0.4811   -1.2041 N.4       1 <0>        -0.5048
      7 C5          0.0021   -0.0041    0.0020 C.3       1 <0>        -0.0046
      8 C6          3.5877    1.9359   -1.2029 C.2       1 <0>         0.4995
      9 O1          4.4528    1.2333   -1.6973 O.co2     1 <0>        -0.6849
     10 O2          3.8863    3.0018   -0.6918 O.co2     1 <0>        -0.6670
     11 H2         -0.5277    1.8781    0.9076 H         1 <0>         0.1033
     12 H3         -0.5447    1.8877   -0.8730 H         1 <0>         0.0813
     13 H4          1.4106    3.1394   -0.0516 H         1 <0>         0.0939
     14 H5          1.9312    1.7317    0.9078 H         1 <0>         0.0734
     15 H6          2.6082   -0.4465   -2.0553 H         1 <0>         0.1361
     16 H7          2.5712   -0.4016   -0.2768 H         1 <0>         0.1230
     17 H8          0.2309   -0.1067   -2.0214 H         1 <0>         0.4219
     18 H9          0.5281   -0.3647    0.8860 H         1 <0>         0.1250
     19 H10        -1.0207   -0.3809    0.0100 H         1 <0>         0.1229
     20 H11         0.6543   -1.4890   -1.2335 H         1 <0>         0.4217
@<TRIPOS>BOND
     1    1    7 1
     2    1    2 1
     3    1   11 1
     4    1   12 1
     5    2    3 1
     6    2   13 1
     7    2   14 1
     8    3    4 1
     9    3    5 1
    10    3    8 1
    11    5    6 1
    12    5   15 1
    13    5   16 1
    14    6    7 1
    15    6   17 1
    16    6   20 1
    17    7   18 1
    18    7   19 1
    19    8    9 2
    20    8   10 1
