@<TRIPOS>MOLECULE
ZINC72110942
   64    67     0     0     0
SMALL
USER_CHARGES

@<TRIPOS>ATOM
      1 C1         -1.4822    1.3177   -0.2780 C.3       1 <0>        -0.1152
      2 C2         -0.5094    0.1837   -0.0812 C.ar      1 <0>        -0.1438
      3 C3          0.0769   -0.4282   -1.1803 C.ar      1 <0>         0.1778
      4 C4          0.9737   -1.4730   -0.9955 C.ar      1 <0>        -0.1234
      5 C5          1.2817   -1.9032    0.2809 C.ar      1 <0>        -0.0855
      6 C6          0.6995   -1.2965    1.3769 C.ar      1 <0>        -0.1401
      7 C7         -0.1936   -0.2470    1.1991 C.ar      1 <0>         0.1605
      8 N1         -0.7784    0.3708    2.3100 N.am      1 <0>        -0.6698
      9 C8         -0.9762   -0.3298    3.4442 C.2       1 <0>         0.5101
     10 O1         -0.5711   -1.4697    3.5314 O.2       1 <0>        -0.5218
     11 C9         -1.7008    0.3031    4.6042 C.3       1 <0>        -0.1707
     12 N2         -0.2350    0.0061   -2.4724 N.pl3     1 <0>        -0.6230
     13 C10        -0.2166   -0.8882   -3.5250 C.ar      1 <0>         0.6269
     14 N3         -0.0219   -2.1848   -3.2945 N.ar      1 <0>        -0.6236
     15 C11        -0.0046   -3.0412   -4.3007 C.ar      1 <0>         0.4081
     16 N4         -0.1799   -2.6145   -5.5393 N.ar      1 <0>        -0.6332
     17 C12        -0.3752   -1.3197   -5.7776 C.ar      1 <0>         0.6314
     18 N5         -0.3987   -0.4563   -4.7680 N.ar      1 <0>        -0.6477
     19 N6         -0.5577   -0.8752   -7.0712 N.pl3     1 <0>        -0.5712
     20 C13        -0.7682    0.5520   -7.3497 C.3       1 <0>         0.1266
     21 C14        -2.0505    0.7100   -8.1728 C.3       1 <0>        -0.1309
     22 C15        -1.9605   -0.1678   -9.4232 C.3       1 <0>         0.0898
     23 C16        -1.8295   -1.6355   -9.0100 C.3       1 <0>        -0.1566
     24 C17        -0.5391   -1.8193   -8.1969 C.3       1 <0>         0.1268
     25 O2         -3.1415    0.0017  -10.2098 O.3       1 <0>        -0.3732
     26 C18        -2.9356   -0.1746  -11.6129 C.3       1 <0>         0.1043
     27 C19        -4.2396    0.0260  -12.3410 C.ar      1 <0>        -0.1084
     28 C20        -5.0813   -1.0493  -12.5583 C.ar      1 <0>        -0.0600
     29 C21        -6.2770   -0.8681  -13.2259 C.ar      1 <0>        -0.1255
     30 C22        -6.6333    0.3941  -13.6782 C.ar      1 <0>         0.1113
     31 C23        -5.7873    1.4714  -13.4586 C.ar      1 <0>        -0.1927
     32 C24        -4.5950    1.2860  -12.7858 C.ar      1 <0>        -0.0557
     33 O3         -7.8089    0.5748  -14.3356 O.3       1 <0>        -0.3103
     34 C25        -8.1105    1.9015  -14.7726 C.3       1 <0>         0.6042
     35 F1         -7.1160    2.3398  -15.6535 F         1 <0>        -0.1642
     36 F2         -9.3476    1.9073  -15.4259 F         1 <0>        -0.1295
     37 F3         -8.1633    2.7562  -13.6663 F         1 <0>        -0.1639
     38 H1         -0.9403    2.2633   -0.2908 H         1 <0>         0.0719
     39 H2         -2.0065    1.1865   -1.2245 H         1 <0>         0.0677
     40 H3         -2.2036    1.3234    0.5392 H         1 <0>         0.0683
     41 H4          1.4304   -1.9496   -1.8503 H         1 <0>         0.1402
     42 H5          1.9790   -2.7159    0.4221 H         1 <0>         0.1294
     43 H6          0.9418   -1.6356    2.3733 H         1 <0>         0.1482
     44 H7         -1.0416    1.3033    2.2638 H         1 <0>         0.4109
     45 H8         -1.9866    1.3218    4.3419 H         1 <0>         0.0781
     46 H9         -2.5943   -0.2770    4.8347 H         1 <0>         0.1004
     47 H10        -1.0455    0.3224    5.4750 H         1 <0>         0.1001
     48 H11        -0.4644    0.9354   -2.6295 H         1 <0>         0.4234
     49 H12         0.1537   -4.0924   -4.1105 H         1 <0>         0.2083
     50 H13        -0.8672    1.0968   -6.4107 H         1 <0>         0.1058
     51 H14         0.0786    0.9430   -7.9137 H         1 <0>         0.0715
     52 H15        -2.9076    0.4028   -7.5735 H         1 <0>         0.0763
     53 H16        -2.1672    1.7527   -8.4679 H         1 <0>         0.0861
     54 H17        -1.0890    0.1236  -10.0095 H         1 <0>         0.0651
     55 H18        -2.6887   -1.9206   -8.4028 H         1 <0>         0.0773
     56 H19        -1.7891   -2.2621   -9.9009 H         1 <0>         0.0805
     57 H20         0.3259   -1.6177   -8.8286 H         1 <0>         0.0711
     58 H21        -0.4871   -2.8397   -7.8171 H         1 <0>         0.1073
     59 H22        -2.2058    0.5534  -11.9673 H         1 <0>         0.0612
     60 H23        -2.5651   -1.1821  -11.8019 H         1 <0>         0.0616
     61 H24        -4.8035   -2.0317  -12.2060 H         1 <0>         0.1392
     62 H25        -6.9338   -1.7085  -13.3960 H         1 <0>         0.1419
     63 H26        -6.0624    2.4550  -13.8097 H         1 <0>         0.1358
     64 H27        -3.9381    2.1252  -12.6107 H         1 <0>         0.1347
@<TRIPOS>BOND
     1    1    2 1
     2    1   38 1
     3    1   39 1
     4    1   40 1
     5    2    7 ar
     6    2    3 ar
     7    3    4 ar
     8    3   12 1
     9    4    5 ar
    10    4   41 1
    11    5    6 ar
    12    5   42 1
    13    6    7 ar
    14    6   43 1
    15    7    8 1
    16    8    9 am
    17    8   44 1
    18    9   10 2
    19    9   11 1
    20   11   45 1
    21   11   46 1
    22   11   47 1
    23   12   13 1
    24   12   48 1
    25   13   18 ar
    26   13   14 ar
    27   14   15 ar
    28   15   16 ar
    29   15   49 1
    30   16   17 ar
    31   17   18 ar
    32   17   19 1
    33   19   24 1
    34   19   20 1
    35   20   21 1
    36   20   50 1
    37   20   51 1
    38   21   22 1
    39   21   52 1
    40   21   53 1
    41   22   23 1
    42   22   25 1
    43   22   54 1
    44   23   24 1
    45   23   55 1
    46   23   56 1
    47   24   57 1
    48   24   58 1
    49   25   26 1
    50   26   27 1
    51   26   59 1
    52   26   60 1
    53   27   32 ar
    54   27   28 ar
    55   28   29 ar
    56   28   61 1
    57   29   30 ar
    58   29   62 1
    59   30   31 ar
    60   30   33 1
    61   31   32 ar
    62   31   63 1
    63   32   64 1
    64   33   34 1
    65   34   35 1
    66   34   36 1
    67   34   37 1
@<TRIPOS>MOLECULE
ZINC14982453
   41    43     0     0     0
SMALL
USER_CHARGES
5-(4-chlorophenyl)-N-(3,5-dimethoxyphenyl)furan-2-carboxamide
@<TRIPOS>ATOM
      1 C1          2.6766   -2.4088    1.0951 C.3       1 <0>         0.0261
      2 O1          1.4013   -1.7670    1.1562 O.3       1 <0>        -0.3115
      3 C2          1.2979   -0.5435    0.5738 C.ar      1 <0>         0.1852
      4 C3          0.0890    0.1348    0.5966 C.ar      1 <0>        -0.2114
      5 C4         -0.0165    1.3849    0.0016 C.ar      1 <0>         0.2188
      6 C5          1.0890    1.9545   -0.6158 C.ar      1 <0>        -0.1889
      7 C6          2.2972    1.2750   -0.6373 C.ar      1 <0>         0.1853
      8 C7          2.4018    0.0264   -0.0427 C.ar      1 <0>        -0.3081
      9 O2          3.3796    1.8328   -1.2408 O.3       1 <0>        -0.3088
     10 C8          4.5923    1.0771   -1.2250 C.3       1 <0>         0.0257
     11 N1         -1.2367    2.0671    0.0192 N.am      1 <0>        -0.6612
     12 C9         -1.2562    3.4103    0.1283 C.2       1 <0>         0.6085
     13 O3         -0.2122    4.0363    0.1269 O.2       1 <0>        -0.4884
     14 C10        -2.5336    4.1167    0.2485 C.2       1 <0>        -0.0814
     15 C11        -2.6960    5.4796    0.3719 C.2       1 <0>        -0.1003
     16 C12        -4.0719    5.7162    0.4533 C.2       1 <0>        -0.1969
     17 C13        -4.6928    4.5018    0.3869 C.2       1 <0>         0.0677
     18 O4         -3.7567    3.5459    0.2637 O.3       1 <0>        -0.1559
     19 C14        -6.1512    4.2764    0.4422 C.ar      1 <0>        -0.0249
     20 C15        -7.0233    5.3587    0.5787 C.ar      1 <0>        -0.0777
     21 C16        -8.3844    5.1420    0.6249 C.ar      1 <0>        -0.1062
     22 C17        -8.8865    3.8536    0.5470 C.ar      1 <0>        -0.0241
     23 C18        -8.0266    2.7757    0.4168 C.ar      1 <0>        -0.1072
     24 C19        -6.6638    2.9796    0.3641 C.ar      1 <0>        -0.0837
     25 Cl1       -10.6009    3.5885    0.6132 Cl        1 <0>        -0.0594
     26 H1          2.9599   -2.5557    0.0529 H         1 <0>         0.0569
     27 H2          3.4213   -1.7852    1.5897 H         1 <0>         0.0568
     28 H3          2.6214   -3.3753    1.5962 H         1 <0>         0.1037
     29 H4         -0.7703   -0.3088    1.0774 H         1 <0>         0.1377
     30 H5          1.0076    2.9266   -1.0792 H         1 <0>         0.1505
     31 H6          3.3434   -0.5023   -0.0595 H         1 <0>         0.1371
     32 H7          5.3749    1.6353   -1.7390 H         1 <0>         0.1038
     33 H8          4.8936    0.8952   -0.1934 H         1 <0>         0.0565
     34 H9          4.4336    0.1246   -1.7306 H         1 <0>         0.0564
     35 H10        -2.0692    1.5737   -0.0472 H         1 <0>         0.4196
     36 H11        -1.9121    6.2220    0.3979 H         1 <0>         0.1686
     37 H12        -4.5527    6.6779    0.5543 H         1 <0>         0.1641
     38 H13        -6.6327    6.3635    0.6437 H         1 <0>         0.1419
     39 H14        -9.0601    5.9784    0.7263 H         1 <0>         0.1435
     40 H15        -8.4242    1.7733    0.3569 H         1 <0>         0.1416
     41 H16        -5.9942    2.1382    0.2630 H         1 <0>         0.1400
@<TRIPOS>BOND
     1    1    2 1
     2    1   26 1
     3    1   27 1
     4    1   28 1
     5    2    3 1
     6    3    8 ar
     7    3    4 ar
     8    4    5 ar
     9    4   29 1
    10    5    6 ar
    11    5   11 1
    12    6    7 ar
    13    6   30 1
    14    7    8 ar
    15    7    9 1
    16    8   31 1
    17    9   10 1
    18   10   32 1
    19   10   33 1
    20   10   34 1
    21   11   12 am
    22   11   35 1
    23   12   13 2
    24   12   14 1
    25   14   18 1
    26   14   15 2
    27   15   16 1
    28   15   36 1
    29   16   17 2
    30   16   37 1
    31   17   18 1
    32   17   19 1
    33   19   24 ar
    34   19   20 ar
    35   20   21 ar
    36   20   38 1
    37   21   22 ar
    38   21   39 1
    39   22   23 ar
    40   22   25 1
    41   23   24 ar
    42   23   40 1
    43   24   41 1
@<TRIPOS>MOLECULE
ZINC43152618
   52    55     0     0     0
SMALL
USER_CHARGES

@<TRIPOS>ATOM
      1 C1         -0.0358    1.2994    0.8293 C.ar      1 <0>        -0.0854
      2 C2          1.1455    1.9769    1.0463 C.ar      1 <0>        -0.1085
      3 C3          2.3567    1.3128    0.9452 C.ar      1 <0>        -0.0191
      4 C4          2.3899   -0.0343    0.6254 C.ar      1 <0>        -0.1032
      5 C5          1.2155   -0.7230    0.4060 C.ar      1 <0>        -0.0729
      6 C6         -0.0091   -0.0592    0.5069 C.ar      1 <0>        -0.0350
      7 C7         -1.2705   -0.7909    0.2737 C.2       1 <0>         0.0787
      8 C8         -1.3760   -2.1154   -0.0411 C.2       1 <0>        -0.1969
      9 C9         -2.7389   -2.3991   -0.1746 C.2       1 <0>        -0.0820
     10 C10        -3.4152   -1.2233    0.0669 C.2       1 <0>        -0.1070
     11 O1         -2.5050   -0.2651    0.3418 O.3       1 <0>        -0.1629
     12 C11        -4.8691   -1.0452    0.0361 C.2       1 <0>         0.6207
     13 O2         -5.5982   -2.0122   -0.0863 O.2       1 <0>        -0.4900
     14 N1         -5.3992    0.1892    0.1432 N.am      1 <0>        -0.6293
     15 C12        -4.5412    1.3842    0.1353 C.3       1 <0>         0.0767
     16 C13        -5.0969    2.3743   -0.8937 C.3       1 <0>        -0.0251
     17 N2         -6.5096    2.6445   -0.5983 N.4       1 <0>        -0.3826
     18 C14        -7.2988    1.4174   -0.7644 C.3       1 <0>        -0.0250
     19 C15        -6.8527    0.3802    0.2653 C.3       1 <0>         0.0914
     20 C16        -7.0116    3.6755   -1.5164 C.3       1 <0>         0.0245
     21 C17        -6.1975    4.9584   -1.3367 C.3       1 <0>        -0.1407
     22 C18        -6.7203    6.0323   -2.2930 C.3       1 <0>        -0.1173
     23 C19        -8.1924    6.3151   -1.9866 C.3       1 <0>        -0.1317
     24 C20        -9.0064    5.0322   -2.1663 C.3       1 <0>        -0.1174
     25 C21        -8.4836    3.9583   -1.2100 C.3       1 <0>        -0.1410
     26 Cl1         3.8395    2.1728    1.2199 Cl        1 <0>        -0.0499
     27 H1         -0.9799    1.8172    0.9128 H         1 <0>         0.1342
     28 H2          1.1262    3.0276    1.2953 H         1 <0>         0.1424
     29 H3          3.3376   -0.5464    0.5473 H         1 <0>         0.1471
     30 H4          1.2427   -1.7734    0.1563 H         1 <0>         0.1434
     31 H5         -0.5604   -2.8126   -0.1642 H         1 <0>         0.1675
     32 H6         -3.1768   -3.3554   -0.4197 H         1 <0>         0.1699
     33 H7         -4.5436    1.8434    1.1238 H         1 <0>         0.0997
     34 H8         -3.5244    1.1032   -0.1388 H         1 <0>         0.1440
     35 H9         -4.5311    3.3046   -0.8453 H         1 <0>         0.1476
     36 H10        -5.0097    1.9473   -1.8928 H         1 <0>         0.1346
     37 H11        -8.3556    1.6427   -0.6208 H         1 <0>         0.1485
     38 H12        -7.1451    1.0194   -1.7674 H         1 <0>         0.1349
     39 H13        -7.3633   -0.5642    0.0771 H         1 <0>         0.1398
     40 H14        -7.0925    0.7363    1.2672 H         1 <0>         0.0987
     41 H15        -6.9152    3.3250   -2.5440 H         1 <0>         0.1369
     42 H16        -6.2939    5.3090   -0.3091 H         1 <0>         0.0876
     43 H17        -5.1488    4.7569   -1.5550 H         1 <0>         0.0872
     44 H18        -6.1404    6.9463   -2.1650 H         1 <0>         0.0854
     45 H19        -6.6239    5.6818   -3.3206 H         1 <0>         0.0744
     46 H20        -8.2888    6.6657   -0.9590 H         1 <0>         0.0706
     47 H21        -8.5648    7.0802   -2.6679 H         1 <0>         0.0799
     48 H22       -10.0551    5.2337   -1.9480 H         1 <0>         0.0856
     49 H23        -8.9100    4.6817   -3.1939 H         1 <0>         0.0744
     50 H24        -9.0635    3.0443   -1.3381 H         1 <0>         0.0881
     51 H25        -8.5800    4.3089   -0.1824 H         1 <0>         0.0876
     52 H26        -6.5965    2.9726    0.3519 H         1 <0>         0.4212
@<TRIPOS>BOND
     1    1    6 ar
     2    1    2 ar
     3    1   27 1
     4    2    3 ar
     5    2   28 1
     6    3    4 ar
     7    3   26 1
     8    4    5 ar
     9    4   29 1
    10    5    6 ar
    11    5   30 1
    12    6    7 1
    13    7   11 1
    14    7    8 2
    15    8    9 1
    16    8   31 1
    17    9   10 2
    18    9   32 1
    19   10   11 1
    20   10   12 1
    21   12   13 2
    22   12   14 am
    23   14   19 1
    24   14   15 1
    25   15   16 1
    26   15   33 1
    27   15   34 1
    28   16   17 1
    29   16   35 1
    30   16   36 1
    31   17   18 1
    32   17   20 1
    33   17   52 1
    34   18   19 1
    35   18   37 1
    36   18   38 1
    37   19   39 1
    38   19   40 1
    39   20   25 1
    40   20   21 1
    41   20   41 1
    42   21   22 1
    43   21   42 1
    44   21   43 1
    45   22   23 1
    46   22   44 1
    47   22   45 1
    48   23   24 1
    49   23   46 1
    50   23   47 1
    51   24   25 1
    52   24   48 1
    53   24   49 1
    54   25   50 1
    55   25   51 1
@<TRIPOS>MOLECULE
ZINC43152618
   51    54     0     0     0
SMALL
USER_CHARGES

@<TRIPOS>ATOM
      1 C1         -0.0369    1.2975    0.8414 C.ar      1 <0>        -0.0855
      2 C2          1.1441    1.9745    1.0616 C.ar      1 <0>        -0.1065
      3 C3          2.3554    1.3105    0.9615 C.ar      1 <0>        -0.0255
      4 C4          2.3890   -0.0362    0.6395 C.ar      1 <0>        -0.1057
      5 C5          1.2149   -0.7244    0.4170 C.ar      1 <0>        -0.0795
      6 C6         -0.0098   -0.0606    0.5169 C.ar      1 <0>        -0.0218
      7 C7         -1.2709   -0.7917    0.2803 C.2       1 <0>         0.0531
      8 C8         -1.3760   -2.1157   -0.0368 C.2       1 <0>        -0.1938
      9 C9         -2.7387   -2.3990   -0.1731 C.2       1 <0>        -0.1088
     10 C10        -3.4153   -1.2235    0.0691 C.2       1 <0>        -0.0745
     11 O1         -2.5054   -0.2659    0.3471 O.3       1 <0>        -0.1505
     12 C11        -4.8691   -1.0452    0.0361 C.2       1 <0>         0.6045
     13 O2         -5.5981   -2.0120   -0.0882 O.2       1 <0>        -0.5175
     14 N1         -5.3992    0.1892    0.1432 N.am      1 <0>        -0.6054
     15 C12        -4.5401    1.3830    0.1352 C.3       1 <0>         0.1032
     16 C13        -5.0831    2.3665   -0.9070 C.3       1 <0>         0.0377
     17 N2         -6.5038    2.6254   -0.6377 N.3       1 <0>        -0.5334
     18 C14        -7.3041    1.4014   -0.7762 C.3       1 <0>         0.0360
     19 C15        -6.8526    0.3786    0.2652 C.3       1 <0>         0.1175
     20 C16        -7.0185    3.6920   -1.5069 C.3       1 <0>         0.0870
     21 C17        -6.2294    4.9788   -1.2571 C.3       1 <0>        -0.1127
     22 C18        -6.7655    6.0897   -2.1623 C.3       1 <0>        -0.1190
     23 C19        -8.2445    6.3302   -1.8533 C.3       1 <0>        -0.1211
     24 C20        -9.0336    5.0435   -2.1031 C.3       1 <0>        -0.1189
     25 C21        -8.4975    3.9326   -1.1979 C.3       1 <0>        -0.1150
     26 Cl1         3.8378    2.1698    1.2401 Cl        1 <0>        -0.0601
     27 H1         -0.9811    1.8153    0.9242 H         1 <0>         0.1389
     28 H2          1.1245    3.0248    1.3123 H         1 <0>         0.1412
     29 H3          3.3367   -0.5483    0.5622 H         1 <0>         0.1429
     30 H4          1.2424   -1.7744    0.1657 H         1 <0>         0.1411
     31 H5         -0.5603   -2.8128   -0.1597 H         1 <0>         0.1617
     32 H6         -3.1763   -3.3549   -0.4206 H         1 <0>         0.1657
     33 H7         -4.5524    1.8496    1.1202 H         1 <0>         0.0816
     34 H8         -3.5207    1.0988   -0.1258 H         1 <0>         0.1044
     35 H9         -4.5258    3.3015   -0.8498 H         1 <0>         0.0947
     36 H10        -4.9740    1.9378   -1.9032 H         1 <0>         0.0386
     37 H11        -8.3576    1.6364   -0.6242 H         1 <0>         0.0968
     38 H12        -7.1640    0.9861   -1.7742 H         1 <0>         0.0393
     39 H13        -7.3614   -0.5693    0.0901 H         1 <0>         0.0995
     40 H14        -7.0915    0.7468    1.2630 H         1 <0>         0.0807
     41 H15        -6.9089    3.3953   -2.5500 H         1 <0>         0.0406
     42 H16        -6.3391    5.2755   -0.2140 H         1 <0>         0.0729
     43 H17        -5.1757    4.8074   -1.4772 H         1 <0>         0.0620
     44 H18        -6.2033    7.0064   -1.9843 H         1 <0>         0.0652
     45 H19        -6.6558    5.7930   -3.2054 H         1 <0>         0.0600
     46 H20        -8.3541    6.6270   -0.8102 H         1 <0>         0.0638
     47 H21        -8.6264    7.1217   -2.4982 H         1 <0>         0.0620
     48 H22       -10.0873    5.2149   -1.8829 H         1 <0>         0.0654
     49 H23        -8.9240    4.7468   -3.1462 H         1 <0>         0.0601
     50 H24        -9.0597    3.0159   -1.3759 H         1 <0>         0.0636
     51 H25        -8.6072    4.2293   -0.1548 H         1 <0>         0.0732
@<TRIPOS>BOND
     1    1    6 ar
     2    1    2 ar
     3    1   27 1
     4    2    3 ar
     5    2   28 1
     6    3    4 ar
     7    3   26 1
     8    4    5 ar
     9    4   29 1
    10    5    6 ar
    11    5   30 1
    12    6    7 1
    13    7   11 1
    14    7    8 2
    15    8    9 1
    16    8   31 1
    17    9   10 2
    18    9   32 1
    19   10   11 1
    20   10   12 1
    21   12   13 2
    22   12   14 am
    23   14   19 1
    24   14   15 1
    25   15   16 1
    26   15   33 1
    27   15   34 1
    28   16   17 1
    29   16   35 1
    30   16   36 1
    31   17   18 1
    32   17   20 1
    33   18   19 1
    34   18   37 1
    35   18   38 1
    36   19   39 1
    37   19   40 1
    38   20   25 1
    39   20   21 1
    40   20   41 1
    41   21   22 1
    42   21   42 1
    43   21   43 1
    44   22   23 1
    45   22   44 1
    46   22   45 1
    47   23   24 1
    48   23   46 1
    49   23   47 1
    50   24   25 1
    51   24   48 1
    52   24   49 1
    53   25   50 1
    54   25   51 1
@<TRIPOS>MOLECULE
ZINC42878005
   36    38     0     0     0
SMALL
USER_CHARGES

@<TRIPOS>ATOM
      1 C1         -0.0358    1.2994    0.8293 C.ar      1 <0>        -0.0852
      2 C2          1.1455    1.9769    1.0463 C.ar      1 <0>        -0.1086
      3 C3          2.3567    1.3128    0.9452 C.ar      1 <0>        -0.0188
      4 C4          2.3899   -0.0343    0.6254 C.ar      1 <0>        -0.1032
      5 C5          1.2155   -0.7230    0.4060 C.ar      1 <0>        -0.0726
      6 C6         -0.0091   -0.0592    0.5069 C.ar      1 <0>        -0.0359
      7 C7         -1.2705   -0.7909    0.2737 C.2       1 <0>         0.0802
      8 C8         -1.3760   -2.1154   -0.0411 C.2       1 <0>        -0.1972
      9 C9         -2.7389   -2.3991   -0.1746 C.2       1 <0>        -0.0807
     10 C10        -3.4152   -1.2233    0.0669 C.2       1 <0>        -0.1091
     11 O1         -2.5050   -0.2651    0.3418 O.3       1 <0>        -0.1634
     12 C11        -4.8691   -1.0452    0.0361 C.2       1 <0>         0.6207
     13 O2         -5.5982   -2.0122   -0.0863 O.2       1 <0>        -0.4890
     14 N1         -5.3992    0.1892    0.1432 N.am      1 <0>        -0.6313
     15 C12        -4.5412    1.3842    0.1353 C.3       1 <0>         0.0729
     16 C13        -5.0969    2.3743   -0.8937 C.3       1 <0>        -0.0211
     17 N2         -6.5096    2.6445   -0.5983 N.4       1 <0>        -0.5055
     18 C14        -7.2988    1.4174   -0.7644 C.3       1 <0>        -0.0205
     19 C15        -6.8527    0.3802    0.2653 C.3       1 <0>         0.0876
     20 Cl1         3.8395    2.1728    1.2199 Cl        1 <0>        -0.0494
     21 H1         -0.9799    1.8172    0.9128 H         1 <0>         0.1341
     22 H2          1.1262    3.0276    1.2953 H         1 <0>         0.1426
     23 H3          3.3376   -0.5464    0.5473 H         1 <0>         0.1473
     24 H4          1.2427   -1.7734    0.1563 H         1 <0>         0.1435
     25 H5         -0.5604   -2.8126   -0.1642 H         1 <0>         0.1678
     26 H6         -3.1768   -3.3554   -0.4197 H         1 <0>         0.1702
     27 H7         -4.5436    1.8434    1.1238 H         1 <0>         0.1011
     28 H8         -3.5244    1.1032   -0.1388 H         1 <0>         0.1441
     29 H9         -4.5311    3.3046   -0.8453 H         1 <0>         0.1496
     30 H10        -5.0097    1.9473   -1.8928 H         1 <0>         0.1367
     31 H11        -6.5965    2.9726    0.3519 H         1 <0>         0.4298
     32 H12        -8.3556    1.6427   -0.6208 H         1 <0>         0.1505
     33 H13        -7.1451    1.0194   -1.7674 H         1 <0>         0.1369
     34 H14        -7.3633   -0.5642    0.0771 H         1 <0>         0.1398
     35 H15        -7.0925    0.7363    1.2672 H         1 <0>         0.0999
     36 H16        -6.8544    3.3526   -1.2289 H         1 <0>         0.4363
@<TRIPOS>BOND
     1    1    6 ar
     2    1    2 ar
     3    1   21 1
     4    2    3 ar
     5    2   22 1
     6    3    4 ar
     7    3   20 1
     8    4    5 ar
     9    4   23 1
    10    5    6 ar
    11    5   24 1
    12    6    7 1
    13    7   11 1
    14    7    8 2
    15    8    9 1
    16    8   25 1
    17    9   10 2
    18    9   26 1
    19   10   11 1
    20   10   12 1
    21   12   13 2
    22   12   14 am
    23   14   19 1
    24   14   15 1
    25   15   16 1
    26   15   27 1
    27   15   28 1
    28   16   17 1
    29   16   29 1
    30   16   30 1
    31   17   18 1
    32   17   31 1
    33   17   36 1
    34   18   19 1
    35   18   32 1
    36   18   33 1
    37   19   34 1
    38   19   35 1
@<TRIPOS>MOLECULE
ZINC42878005
   35    37     0     0     0
SMALL
USER_CHARGES

@<TRIPOS>ATOM
      1 C1         -0.0246    1.3973   -0.1902 C.ar      1 <0>        -0.0860
      2 C2          1.1598    2.1012   -0.2508 C.ar      1 <0>        -0.1065
      3 C3          2.3695    1.4269   -0.2658 C.ar      1 <0>        -0.0254
      4 C4          2.3981    0.0430   -0.2206 C.ar      1 <0>        -0.1055
      5 C5          1.2207   -0.6723   -0.1598 C.ar      1 <0>        -0.0793
      6 C6         -0.0024    0.0017   -0.1439 C.ar      1 <0>        -0.0222
      7 C7         -1.2670   -0.7582   -0.0785 C.2       1 <0>         0.0511
      8 C8         -1.3765   -2.1182   -0.0238 C.2       1 <0>        -0.1931
      9 C9         -2.7413   -2.4191    0.0272 C.2       1 <0>        -0.1075
     10 C10        -3.4146   -1.2173    0.0012 C.2       1 <0>        -0.0752
     11 O1         -2.5003   -0.2259   -0.0570 O.3       1 <0>        -0.1500
     12 C11        -4.8691   -1.0452    0.0361 C.2       1 <0>         0.6032
     13 O2         -5.5987   -2.0172   -0.0317 O.2       1 <0>        -0.5174
     14 N1         -5.3992    0.1892    0.1432 N.am      1 <0>        -0.6057
     15 C12        -4.5401    1.3830    0.1352 C.3       1 <0>         0.0941
     16 C13        -4.8996    2.2496    1.3468 C.3       1 <0>         0.0428
     17 N2         -6.3429    2.5229    1.3384 N.3       1 <0>        -0.6896
     18 C14        -7.1206    1.2844    1.4776 C.3       1 <0>         0.0419
     19 C15        -6.8526    0.3786    0.2652 C.3       1 <0>         0.1155
     20 Cl1         3.8560    2.3202   -0.3421 Cl        1 <0>        -0.0598
     21 H1         -0.9671    1.9244   -0.1740 H         1 <0>         0.1385
     22 H2          1.1439    3.1805   -0.2869 H         1 <0>         0.1414
     23 H3          3.3446   -0.4771   -0.2333 H         1 <0>         0.1431
     24 H4          1.2443   -1.7515   -0.1250 H         1 <0>         0.1412
     25 H5         -0.5624   -2.8279   -0.0209 H         1 <0>         0.1620
     26 H6         -3.1824   -3.4036    0.0772 H         1 <0>         0.1661
     27 H7         -3.4944    1.0820    0.1977 H         1 <0>         0.1121
     28 H8         -4.7072    1.9482   -0.7817 H         1 <0>         0.0818
     29 H9         -4.6347    1.7217    2.2630 H         1 <0>         0.0373
     30 H10        -4.3510    3.1902    1.2969 H         1 <0>         0.0910
     31 H11        -6.8248    0.7700    2.3919 H         1 <0>         0.0382
     32 H12        -8.1828    1.5250    1.5226 H         1 <0>         0.0923
     33 H13        -7.2378    0.8492   -0.6395 H         1 <0>         0.0810
     34 H14        -7.3365   -0.5867    0.4136 H         1 <0>         0.0992
     35 H15        -6.5894    3.1873    2.0567 H         1 <0>         0.3498
@<TRIPOS>BOND
     1    1    6 ar
     2    1    2 ar
     3    1   21 1
     4    2    3 ar
     5    2   22 1
     6    3    4 ar
     7    3   20 1
     8    4    5 ar
     9    4   23 1
    10    5    6 ar
    11    5   24 1
    12    6    7 1
    13    7   11 1
    14    7    8 2
    15    8    9 1
    16    8   25 1
    17    9   10 2
    18    9   26 1
    19   10   11 1
    20   10   12 1
    21   12   13 2
    22   12   14 am
    23   14   19 1
    24   14   15 1
    25   15   16 1
    26   15   27 1
    27   15   28 1
    28   16   17 1
    29   16   29 1
    30   16   30 1
    31   17   18 1
    32   17   35 1
    33   18   19 1
    34   18   31 1
    35   18   32 1
    36   19   33 1
    37   19   34 1
@<TRIPOS>MOLECULE
ZINC00896543
   49    50     0     0     0
SMALL
USER_CHARGES

@<TRIPOS>ATOM
      1 C1         -0.0168    1.3850    0.0097 C.ar      1 <0>        -0.1248
      2 C2          1.1653    2.0985    0.0022 C.ar      1 <0>        -0.1683
      3 C3          2.3808    1.4320   -0.0130 C.ar      1 <0>         0.1639
      4 C4          2.4070    0.0310   -0.0208 C.ar      1 <0>        -0.1363
      5 C5          1.2066   -0.6830   -0.0132 C.ar      1 <0>        -0.0768
      6 C6          0.0021   -0.0041    0.0020 C.ar      1 <0>         0.0923
      7 O1         -1.1674   -0.6981    0.0099 O.3       1 <0>        -0.2988
      8 C7         -2.3750    0.0658    0.0260 C.3       1 <0>         0.0110
      9 C8         -3.5771   -0.8807    0.0329 C.3       1 <0>         0.4671
     10 F1         -3.5242   -1.6935    1.1704 F         1 <0>        -0.1730
     11 F2         -4.7593   -0.1329    0.0487 F         1 <0>        -0.1652
     12 F3         -3.5469   -1.6812   -1.1140 F         1 <0>        -0.1719
     13 C9          3.6962   -0.6863   -0.0375 C.2       1 <0>         0.5705
     14 O2          4.7394   -0.0617   -0.0445 O.2       1 <0>        -0.4804
     15 N1          3.7176   -2.0339   -0.0449 N.am      1 <0>        -0.7548
     16 C10         4.9977   -2.7461   -0.0615 C.3       1 <0>         0.0971
     17 C11         4.7419   -4.2546   -0.0671 C.3       1 <0>         0.0191
     18 H1          4.2438   -4.5348   -0.9952 H         1 <0>         0.1477
     19 C12         6.0753   -4.9977    0.0399 C.3       1 <0>        -0.1384
     20 C13         5.8143   -6.5067    0.0337 C.3       1 <0>        -0.1381
     21 C14         4.8621   -6.8549    1.1814 C.3       1 <0>        -0.1487
     22 C15         3.5737   -6.0430    1.0321 C.3       1 <0>        -0.0076
     23 N2          3.8877   -4.6096    1.0725 N.4       1 <0>        -0.5070
     24 O3          3.5422    2.1345   -0.0208 O.3       1 <0>        -0.2667
     25 C16         3.4384    3.5597   -0.0126 C.3       1 <0>         0.0044
     26 C17         4.8399    4.1732   -0.0231 C.3       1 <0>         0.4686
     27 F4          5.5204    3.7619   -1.1742 F         1 <0>        -0.1698
     28 F5          4.7383    5.5685   -0.0151 F         1 <0>        -0.1675
     29 F6          5.5427    3.7503    1.1102 F         1 <0>        -0.1705
     30 H2         -0.9608    1.9094    0.0260 H         1 <0>         0.1464
     31 H3          1.1429    3.1783    0.0079 H         1 <0>         0.1495
     32 H4          1.2192   -1.7629   -0.0195 H         1 <0>         0.1393
     33 H5         -2.3985    0.6895    0.9197 H         1 <0>         0.1146
     34 H6         -2.4162    0.6990   -0.8602 H         1 <0>         0.1149
     35 H7          2.8854   -2.5322   -0.0393 H         1 <0>         0.3917
     36 H8          5.5561   -2.4690   -0.9556 H         1 <0>         0.1175
     37 H9          5.5738   -2.4786    0.8243 H         1 <0>         0.0993
     38 H10         6.7079   -4.7342   -0.8077 H         1 <0>         0.1178
     39 H11         6.5742   -4.7185    0.9679 H         1 <0>         0.0945
     40 H12         5.3619   -6.7945   -0.9153 H         1 <0>         0.0841
     41 H13         6.7557   -7.0400    0.1665 H         1 <0>         0.0987
     42 H14         4.6276   -7.9189    1.1497 H         1 <0>         0.1147
     43 H15         5.3359   -6.6142    2.1331 H         1 <0>         0.0900
     44 H16         3.1007   -6.2846    0.0803 H         1 <0>         0.1325
     45 H17         2.8935   -6.2886    1.8476 H         1 <0>         0.1363
     46 H18         4.3699   -4.3956    1.9326 H         1 <0>         0.4297
     47 H19         2.8908    3.8892   -0.8956 H         1 <0>         0.1148
     48 H20         2.9082    3.8802    0.8843 H         1 <0>         0.1146
     49 H21         3.0313   -4.0778    1.0282 H         1 <0>         0.4220
@<TRIPOS>BOND
     1    1    6 ar
     2    1    2 ar
     3    1   30 1
     4    2    3 ar
     5    2   31 1
     6    3    4 ar
     7    3   24 1
     8    4    5 ar
     9    4   13 1
    10    5    6 ar
    11    5   32 1
    12    6    7 1
    13    7    8 1
    14    8    9 1
    15    8   33 1
    16    8   34 1
    17    9   10 1
    18    9   11 1
    19    9   12 1
    20   13   14 2
    21   13   15 am
    22   15   16 1
    23   15   35 1
    24   16   17 1
    25   16   36 1
    26   16   37 1
    27   17   18 1
    28   17   23 1
    29   17   19 1
    30   19   20 1
    31   19   38 1
    32   19   39 1
    33   20   21 1
    34   20   40 1
    35   20   41 1
    36   21   22 1
    37   21   42 1
    38   21   43 1
    39   22   23 1
    40   22   44 1
    41   22   45 1
    42   23   46 1
    43   23   49 1
    44   24   25 1
    45   25   26 1
    46   25   47 1
    47   25   48 1
    48   26   27 1
    49   26   28 1
    50   26   29 1
@<TRIPOS>MOLECULE
ZINC03830842
   49    50     0     0     0
SMALL
USER_CHARGES

@<TRIPOS>ATOM
      1 C1         -0.0168    1.3850    0.0097 C.ar      1 <0>        -0.1248
      2 C2          1.1653    2.0985    0.0022 C.ar      1 <0>        -0.1683
      3 C3          2.3808    1.4320   -0.0130 C.ar      1 <0>         0.1639
      4 C4          2.4070    0.0310   -0.0208 C.ar      1 <0>        -0.1363
      5 C5          1.2066   -0.6830   -0.0132 C.ar      1 <0>        -0.0768
      6 C6          0.0021   -0.0041    0.0020 C.ar      1 <0>         0.0923
      7 O1         -1.1674   -0.6981    0.0099 O.3       1 <0>        -0.2988
      8 C7         -2.3750    0.0658    0.0260 C.3       1 <0>         0.0110
      9 C8         -3.5771   -0.8807    0.0329 C.3       1 <0>         0.4671
     10 F1         -3.5242   -1.6935    1.1704 F         1 <0>        -0.1719
     11 F2         -4.7593   -0.1329    0.0487 F         1 <0>        -0.1652
     12 F3         -3.5469   -1.6812   -1.1140 F         1 <0>        -0.1729
     13 C9          3.6962   -0.6863   -0.0375 C.2       1 <0>         0.5705
     14 O2          4.7394   -0.0617   -0.0445 O.2       1 <0>        -0.4804
     15 N1          3.7176   -2.0339   -0.0449 N.am      1 <0>        -0.7548
     16 C10         4.9977   -2.7461   -0.0615 C.3       1 <0>         0.0972
     17 C11         4.7419   -4.2546   -0.0671 C.3       1 <0>         0.0191
     18 H1          4.2623   -4.5448    0.8677 H         1 <0>         0.1477
     19 C12         6.0728   -4.9964   -0.2085 C.3       1 <0>        -0.1385
     20 C13         5.8119   -6.5054   -0.2133 C.3       1 <0>        -0.1380
     21 C14         4.8370   -6.8413   -1.3456 C.3       1 <0>        -0.1487
     22 C15         3.5519   -6.0312   -1.1620 C.3       1 <0>        -0.0077
     23 N2          3.8651   -4.5974   -1.1932 N.4       1 <0>        -0.5070
     24 O3          3.5422    2.1345   -0.0208 O.3       1 <0>        -0.2667
     25 C16         3.4384    3.5597   -0.0126 C.3       1 <0>         0.0044
     26 C17         4.8399    4.1732   -0.0231 C.3       1 <0>         0.4686
     27 F4          5.5204    3.7619   -1.1742 F         1 <0>        -0.1705
     28 F5          4.7383    5.5685   -0.0151 F         1 <0>        -0.1675
     29 F6          5.5427    3.7503    1.1102 F         1 <0>        -0.1698
     30 H2         -0.9608    1.9094    0.0260 H         1 <0>         0.1464
     31 H3          1.1429    3.1783    0.0079 H         1 <0>         0.1495
     32 H4          1.2192   -1.7629   -0.0195 H         1 <0>         0.1393
     33 H5         -2.3985    0.6895    0.9197 H         1 <0>         0.1148
     34 H6         -2.4162    0.6990   -0.8602 H         1 <0>         0.1146
     35 H7          2.8854   -2.5322   -0.0393 H         1 <0>         0.3917
     36 H8          5.5561   -2.4690   -0.9556 H         1 <0>         0.0993
     37 H9          5.5738   -2.4786    0.8243 H         1 <0>         0.1175
     38 H10         6.5532   -4.7071   -1.1432 H         1 <0>         0.0945
     39 H11         6.7222   -4.7420    0.6292 H         1 <0>         0.1178
     40 H12         6.7503   -7.0371   -0.3706 H         1 <0>         0.0987
     41 H13         5.3783   -6.8034    0.7413 H         1 <0>         0.0841
     42 H14         5.2918   -6.5903   -2.3039 H         1 <0>         0.0900
     43 H15         4.6030   -7.9056   -1.3206 H         1 <0>         0.1147
     44 H16         2.8556   -6.2681   -1.9664 H         1 <0>         0.1363
     45 H17         3.0979   -6.2831   -0.2036 H         1 <0>         0.1325
     46 H18         3.0099   -4.0662   -1.1261 H         1 <0>         0.4220
     47 H19         2.8908    3.8892   -0.8956 H         1 <0>         0.1146
     48 H20         2.9082    3.8802    0.8843 H         1 <0>         0.1148
     49 H21         4.3302   -4.3742   -2.0603 H         1 <0>         0.4297
@<TRIPOS>BOND
     1    1    6 ar
     2    1    2 ar
     3    1   30 1
     4    2    3 ar
     5    2   31 1
     6    3    4 ar
     7    3   24 1
     8    4    5 ar
     9    4   13 1
    10    5    6 ar
    11    5   32 1
    12    6    7 1
    13    7    8 1
    14    8    9 1
    15    8   33 1
    16    8   34 1
    17    9   10 1
    18    9   11 1
    19    9   12 1
    20   13   14 2
    21   13   15 am
    22   15   16 1
    23   15   35 1
    24   16   17 1
    25   16   36 1
    26   16   37 1
    27   17   18 1
    28   17   23 1
    29   17   19 1
    30   19   20 1
    31   19   38 1
    32   19   39 1
    33   20   21 1
    34   20   40 1
    35   20   41 1
    36   21   22 1
    37   21   42 1
    38   21   43 1
    39   22   23 1
    40   22   44 1
    41   22   45 1
    42   23   46 1
    43   23   49 1
    44   24   25 1
    45   25   26 1
    46   25   47 1
    47   25   48 1
    48   26   27 1
    49   26   28 1
    50   26   29 1
@<TRIPOS>MOLECULE
ZINC00403582
   49    52     0     0     0
SMALL
USER_CHARGES

@<TRIPOS>ATOM
      1 C1          0.8724    1.1631   -0.3363 C.3       1 <0>         0.0202
      2 O1          0.6878   -0.2525   -0.2709 O.3       1 <0>        -0.3137
      3 C2         -0.5920   -0.7057   -0.2121 C.ar      1 <0>         0.1585
      4 C3         -1.6502    0.2085   -0.2236 C.ar      1 <0>        -0.1753
      5 C4         -2.9414   -0.2138   -0.1659 C.ar      1 <0>        -0.0348
      6 C5         -3.2248   -1.5896   -0.0934 C.ar      1 <0>         0.0989
      7 C6         -2.1522   -2.5161   -0.0818 C.ar      1 <0>        -0.0444
      8 C7         -0.8302   -2.0492   -0.1481 C.ar      1 <0>        -0.1797
      9 C8         -2.4399   -3.8921   -0.0092 C.ar      1 <0>        -0.0896
     10 C9         -3.7501   -4.2746    0.0471 C.ar      1 <0>        -0.1349
     11 C10        -4.7565   -3.3117    0.0319 C.ar      1 <0>         0.1205
     12 N1         -4.4850   -2.0309   -0.0362 N.ar      1 <0>        -0.4415
     13 C11        -1.3332   -4.9149    0.0054 C.3       1 <0>         0.1418
     14 H1         -0.5131   -4.5719   -0.6253 H         1 <0>         0.1366
     15 C12        -0.8307   -5.1022    1.4384 C.3       1 <0>        -0.0033
     16 H2         -0.5994   -4.1286    1.8706 H         1 <0>         0.1463
     17 C13        -1.9180   -5.7828    2.2729 C.3       1 <0>        -0.1346
     18 C14        -1.3677   -7.1076    2.8171 C.3       1 <0>        -0.0926
     19 H3         -2.1218   -7.6091    3.4237 H         1 <0>         0.1184
     20 C15        -0.9686   -7.9910    1.6277 C.3       1 <0>        -0.1359
     21 C16         0.0796   -7.2513    0.7933 C.3       1 <0>        -0.0193
     22 N2          0.3790   -5.9280    1.4252 N.4       1 <0>        -0.3773
     23 C17         0.9057   -6.0928    2.7821 C.3       1 <0>        -0.0008
     24 C18        -0.1224   -6.8042    3.6607 C.3       1 <0>        -0.0658
     25 H4         -0.3959   -6.1620    4.4979 H         1 <0>         0.1076
     26 C19         0.4626   -8.0926    4.1791 C.2       1 <0>        -0.1891
     27 C20         0.5661   -8.2925    5.4696 C.2       1 <0>        -0.1440
     28 O2         -1.8284   -6.1596   -0.4922 O.3       1 <0>        -0.5356
     29 H5          1.9379    1.3889   -0.3789 H         1 <0>         0.1092
     30 H6          0.3825    1.5525   -1.2287 H         1 <0>         0.0636
     31 H7          0.4376    1.6275    0.5488 H         1 <0>         0.0626
     32 H8         -1.4386    1.2661   -0.2788 H         1 <0>         0.1456
     33 H9         -3.7471    0.5052   -0.1754 H         1 <0>         0.1494
     34 H10        -0.0064   -2.7476   -0.1445 H         1 <0>         0.1293
     35 H11        -4.0054   -5.3225    0.1031 H         1 <0>         0.1386
     36 H12        -5.7879   -3.6287    0.0770 H         1 <0>         0.1687
     37 H13        -2.1998   -5.1357    3.1035 H         1 <0>         0.1063
     38 H14        -2.7893   -5.9785    1.6479 H         1 <0>         0.0959
     39 H15        -0.5495   -8.9284    1.9932 H         1 <0>         0.1013
     40 H16        -1.8460   -8.1956    1.0141 H         1 <0>         0.0986
     41 H17         0.9952   -7.8416    0.7571 H         1 <0>         0.1218
     42 H18        -0.2981   -7.1102   -0.2194 H         1 <0>         0.1666
     43 H19         1.8202   -6.6848    2.7456 H         1 <0>         0.1342
     44 H20         1.1277   -5.1131    3.2053 H         1 <0>         0.1296
     45 H21         0.7966   -8.8512    3.4867 H         1 <0>         0.1187
     46 H22         0.2321   -7.5339    6.1621 H         1 <0>         0.1034
     47 H23         0.9853   -9.2159    5.8412 H         1 <0>         0.1105
     48 H24        -2.5615   -6.5250    0.0218 H         1 <0>         0.3862
     49 H25         1.0806   -5.4578    0.8731 H         1 <0>         0.4231
@<TRIPOS>BOND
     1    1    2 1
     2    1   29 1
     3    1   30 1
     4    1   31 1
     5    2    3 1
     6    3    8 ar
     7    3    4 ar
     8    4    5 ar
     9    4   32 1
    10    5    6 ar
    11    5   33 1
    12    6   12 ar
    13    6    7 ar
    14    7    8 ar
    15    7    9 ar
    16    8   34 1
    17    9   10 ar
    18    9   13 1
    19   10   11 ar
    20   10   35 1
    21   11   12 ar
    22   11   36 1
    23   13   14 1
    24   13   15 1
    25   13   28 1
    26   15   16 1
    27   15   22 1
    28   15   17 1
    29   17   18 1
    30   17   37 1
    31   17   38 1
    32   18   19 1
    33   18   24 1
    34   18   20 1
    35   20   21 1
    36   20   39 1
    37   20   40 1
    38   21   22 1
    39   21   41 1
    40   21   42 1
    41   22   23 1
    42   22   49 1
    43   23   24 1
    44   23   43 1
    45   23   44 1
    46   24   25 1
    47   24   26 1
    48   26   27 2
    49   26   45 1
    50   27   46 1
    51   27   47 1
    52   28   48 1
@<TRIPOS>MOLECULE
ZINC03831403
   49    52     0     0     0
SMALL
USER_CHARGES

@<TRIPOS>ATOM
      1 C1          2.2982   -8.7592   -3.7306 C.3       1 <0>         0.0200
      2 O1          1.3894   -8.1799   -2.7922 O.3       1 <0>        -0.3125
      3 C2          1.3221   -6.8231   -2.7555 C.ar      1 <0>         0.1594
      4 C3          2.1208   -6.0678   -3.6198 C.ar      1 <0>        -0.1751
      5 C4          2.0761   -4.7089   -3.6070 C.ar      1 <0>        -0.0349
      6 C5          1.2159   -4.0457   -2.7134 C.ar      1 <0>         0.0987
      7 C6          0.4063   -4.8113   -1.8373 C.ar      1 <0>        -0.0414
      8 C7          0.4710   -6.2128   -1.8784 C.ar      1 <0>        -0.1815
      9 C8         -0.4533   -4.1440   -0.9446 C.ar      1 <0>        -0.0893
     10 C9         -0.4682   -2.7782   -0.9635 C.ar      1 <0>        -0.1363
     11 C10         0.3534   -2.0864   -1.8505 C.ar      1 <0>         0.1194
     12 N1          1.1526   -2.7111   -2.6810 N.ar      1 <0>        -0.4413
     13 C11        -1.3332   -4.9149    0.0054 C.3       1 <0>         0.1365
     14 H1         -1.4755   -5.9276   -0.3718 H         1 <0>         0.1367
     15 C12        -0.6694   -4.9723    1.3827 C.3       1 <0>        -0.0006
     16 H2         -0.4369   -3.9604    1.7146 H         1 <0>         0.1396
     17 C13         0.6234   -5.7859    1.2899 C.3       1 <0>        -0.1441
     18 C14         0.5202   -6.9889    2.2366 C.3       1 <0>        -0.0902
     19 H3          1.4343   -7.5812    2.1955 H         1 <0>         0.1189
     20 C15        -0.6837   -7.8389    1.8096 C.3       1 <0>        -0.1415
     21 C16        -1.9443   -6.9732    1.8671 C.3       1 <0>        -0.0033
     22 N2         -1.5861   -5.5986    2.3384 N.4       1 <0>        -0.3772
     23 C17        -0.9917   -5.6325    3.6767 C.3       1 <0>         0.0012
     24 C18         0.2892   -6.4658    3.6604 C.3       1 <0>        -0.0671
     25 H4          0.1861   -7.3066    4.3463 H         1 <0>         0.1100
     26 C19         1.4562   -5.6091    4.0792 C.2       1 <0>        -0.1905
     27 C20         2.1678   -5.9391    5.1284 C.2       1 <0>        -0.1425
     28 O2         -2.6011   -4.2647    0.1144 O.3       1 <0>        -0.5416
     29 H5          2.2533   -9.8458   -3.6565 H         1 <0>         0.1093
     30 H6          2.0233   -8.4521   -4.7397 H         1 <0>         0.0634
     31 H7          3.3111   -8.4216   -3.5113 H         1 <0>         0.0626
     32 H8          2.7835   -6.5715   -4.3079 H         1 <0>         0.1458
     33 H9          2.6998   -4.1403   -4.2809 H         1 <0>         0.1494
     34 H10        -0.1453   -6.8049   -1.2181 H         1 <0>         0.1339
     35 H11        -1.1165   -2.2353   -0.2917 H         1 <0>         0.1384
     36 H12         0.3312   -1.0066   -1.8543 H         1 <0>         0.1683
     37 H13         0.7615   -6.1367    0.2672 H         1 <0>         0.1127
     38 H14         1.4688   -5.1629    1.5817 H         1 <0>         0.1046
     39 H15        -0.5340   -8.1991    0.7918 H         1 <0>         0.1024
     40 H16        -0.7913   -8.6862    2.4869 H         1 <0>         0.1042
     41 H17        -2.3971   -6.9275    0.8766 H         1 <0>         0.1340
     42 H18        -2.6540   -7.4138    2.5673 H         1 <0>         0.1327
     43 H19        -0.7586   -4.6164    3.9948 H         1 <0>         0.1313
     44 H20        -1.7008   -6.0751    4.3763 H         1 <0>         0.1342
     45 H21         1.7058   -4.7231    3.5144 H         1 <0>         0.1164
     46 H22         1.9181   -6.8252    5.6933 H         1 <0>         0.1045
     47 H23         3.0041   -5.3252    5.4286 H         1 <0>         0.1102
     48 H24        -2.5608   -3.3909    0.5267 H         1 <0>         0.3866
     49 H25        -2.4274   -5.0435    2.3846 H         1 <0>         0.4253
@<TRIPOS>BOND
     1    1    2 1
     2    1   29 1
     3    1   30 1
     4    1   31 1
     5    2    3 1
     6    3    8 ar
     7    3    4 ar
     8    4    5 ar
     9    4   32 1
    10    5    6 ar
    11    5   33 1
    12    6   12 ar
    13    6    7 ar
    14    7    8 ar
    15    7    9 ar
    16    8   34 1
    17    9   10 ar
    18    9   13 1
    19   10   11 ar
    20   10   35 1
    21   11   12 ar
    22   11   36 1
    23   13   14 1
    24   13   15 1
    25   13   28 1
    26   15   16 1
    27   15   22 1
    28   15   17 1
    29   17   18 1
    30   17   37 1
    31   17   38 1
    32   18   19 1
    33   18   24 1
    34   18   20 1
    35   20   21 1
    36   20   39 1
    37   20   40 1
    38   21   22 1
    39   21   41 1
    40   21   42 1
    41   22   23 1
    42   22   49 1
    43   23   24 1
    44   23   43 1
    45   23   44 1
    46   24   25 1
    47   24   26 1
    48   26   27 2
    49   26   45 1
    50   27   46 1
    51   27   47 1
    52   28   48 1
@<TRIPOS>MOLECULE
ZINC03831405
   49    52     0     0     0
SMALL
USER_CHARGES

@<TRIPOS>ATOM
      1 C1         -0.1764    0.8014   -3.0424 C.3       1 <0>         0.0200
      2 O1         -0.1372   -0.5890   -2.7148 O.3       1 <0>        -0.3132
      3 C2         -1.2504   -1.1200   -2.1442 C.ar      1 <0>         0.1590
      4 C3         -2.3634   -0.3060   -1.9120 C.ar      1 <0>        -0.1735
      5 C4         -3.4917   -0.8077   -1.3428 C.ar      1 <0>        -0.0355
      6 C5         -3.5476   -2.1654   -0.9795 C.ar      1 <0>         0.1009
      7 C6         -2.4194   -2.9905   -1.2148 C.ar      1 <0>        -0.0441
      8 C7         -1.2712   -2.4441   -1.8092 C.ar      1 <0>        -0.1785
      9 C8         -2.4792   -4.3486   -0.8498 C.ar      1 <0>        -0.0878
     10 C9         -3.6310   -4.8130   -0.2809 C.ar      1 <0>        -0.1455
     11 C10        -4.7036   -3.9480   -0.0774 C.ar      1 <0>         0.1237
     12 N1         -4.6447   -2.6836   -0.4189 N.ar      1 <0>        -0.4401
     13 C11        -1.3053   -5.2650   -1.0808 C.3       1 <0>         0.1353
     14 H1         -0.7977   -4.9800   -2.0023 H         1 <0>         0.1255
     15 C12        -0.3314   -5.1520    0.0938 C.3       1 <0>         0.0074
     16 H2         -0.1138   -4.1009    0.2834 H         1 <0>         0.1440
     17 C13        -0.9656   -5.7723    1.3408 C.3       1 <0>        -0.1288
     18 C14        -0.0775   -6.9255    1.8263 C.3       1 <0>        -0.0921
     19 H3         -0.5128   -7.3909    2.7106 H         1 <0>         0.1168
     20 C15         1.3122   -6.3622    2.1515 C.3       1 <0>        -0.1389
     21 C16         1.8860   -5.7069    0.8932 C.3       1 <0>         0.0033
     22 N2          0.9114   -5.8538   -0.2361 N.4       1 <0>        -0.3777
     23 C17         0.6447   -7.2635   -0.5315 C.3       1 <0>        -0.0106
     24 C18         0.0464   -7.9514    0.6921 C.3       1 <0>        -0.0600
     25 H4          0.6964   -8.7677    1.0073 H         1 <0>         0.1051
     26 C19        -1.3178   -8.4922    0.3490 C.2       1 <0>        -0.1682
     27 C20        -1.4890   -9.7803    0.1830 C.2       1 <0>        -0.1581
     28 O2         -1.7673   -6.6129   -1.1886 O.3       1 <0>        -0.5370
     29 H5          0.7728    1.0962   -3.4899 H         1 <0>         0.1096
     30 H6         -0.9845    0.9852   -3.7504 H         1 <0>         0.0637
     31 H7         -0.3474    1.3834   -2.1368 H         1 <0>         0.0629
     32 H8         -2.3262    0.7373   -2.1886 H         1 <0>         0.1462
     33 H9         -4.3426   -0.1655   -1.1699 H         1 <0>         0.1501
     34 H10        -0.4082   -3.0658   -1.9968 H         1 <0>         0.1303
     35 H11        -3.7101   -5.8500    0.0105 H         1 <0>         0.1375
     36 H12        -5.6080   -4.3290    0.3735 H         1 <0>         0.1700
     37 H13        -1.0453   -5.0181    2.1237 H         1 <0>         0.1009
     38 H14        -1.9570   -6.1531    1.0954 H         1 <0>         0.0955
     39 H15         1.2288   -5.6193    2.9447 H         1 <0>         0.1011
     40 H16         1.9680   -7.1712    2.4735 H         1 <0>         0.1013
     41 H17         2.0811   -4.6530    1.0912 H         1 <0>         0.1308
     42 H18         2.8189   -6.2008    0.6215 H         1 <0>         0.1300
     43 H19        -0.0547   -7.3324   -1.3646 H         1 <0>         0.1604
     44 H20         1.5771   -7.7589   -0.8023 H         1 <0>         0.1228
     45 H21        -2.1542   -7.8178    0.2399 H         1 <0>         0.1171
     46 H22        -0.6525  -10.4547    0.2920 H         1 <0>         0.1015
     47 H23        -2.4666  -10.1678   -0.0629 H         1 <0>         0.1082
     48 H24        -2.5945   -6.7840   -0.7179 H         1 <0>         0.3872
     49 H25         1.3069   -5.4312   -1.0625 H         1 <0>         0.4216
@<TRIPOS>BOND
     1    1    2 1
     2    1   29 1
     3    1   30 1
     4    1   31 1
     5    2    3 1
     6    3    8 ar
     7    3    4 ar
     8    4    5 ar
     9    4   32 1
    10    5    6 ar
    11    5   33 1
    12    6   12 ar
    13    6    7 ar
    14    7    8 ar
    15    7    9 ar
    16    8   34 1
    17    9   10 ar
    18    9   13 1
    19   10   11 ar
    20   10   35 1
    21   11   12 ar
    22   11   36 1
    23   13   14 1
    24   13   15 1
    25   13   28 1
    26   15   16 1
    27   15   22 1
    28   15   17 1
    29   17   18 1
    30   17   37 1
    31   17   38 1
    32   18   19 1
    33   18   24 1
    34   18   20 1
    35   20   21 1
    36   20   39 1
    37   20   40 1
    38   21   22 1
    39   21   41 1
    40   21   42 1
    41   22   23 1
    42   22   49 1
    43   23   24 1
    44   23   43 1
    45   23   44 1
    46   24   25 1
    47   24   26 1
    48   26   27 2
    49   26   45 1
    50   27   46 1
    51   27   47 1
    52   28   48 1
@<TRIPOS>MOLECULE
ZINC04521307
   49    52     0     0     0
SMALL
USER_CHARGES

@<TRIPOS>ATOM
      1 C1          2.2967   -8.7616   -3.7296 C.3       1 <0>         0.0200
      2 O1          1.3881   -8.1817   -2.7914 O.3       1 <0>        -0.3126
      3 C2          1.3214   -6.8249   -2.7550 C.ar      1 <0>         0.1595
      4 C3          2.1203   -6.0701   -3.6196 C.ar      1 <0>        -0.1751
      5 C4          2.0762   -4.7112   -3.6071 C.ar      1 <0>        -0.0347
      6 C5          1.2162   -4.0475   -2.7137 C.ar      1 <0>         0.0988
      7 C6          0.4064   -4.8125   -1.8374 C.ar      1 <0>        -0.0415
      8 C7          0.4705   -6.2140   -1.8781 C.ar      1 <0>        -0.1817
      9 C8         -0.4530   -4.1446   -0.9448 C.ar      1 <0>        -0.0894
     10 C9         -0.4674   -2.7788   -0.9641 C.ar      1 <0>        -0.1359
     11 C10         0.3545   -2.0875   -1.8512 C.ar      1 <0>         0.1196
     12 N1          1.1535   -2.7128   -2.6816 N.ar      1 <0>        -0.4412
     13 C11        -1.3332   -4.9149    0.0054 C.3       1 <0>         0.1356
     14 H1         -1.4760   -5.9276   -0.3716 H         1 <0>         0.1358
     15 C12        -0.6694   -4.9723    1.3827 C.3       1 <0>        -0.0016
     16 H2         -0.4368   -3.9604    1.7146 H         1 <0>         0.1419
     17 C13         0.6234   -5.7859    1.2897 C.3       1 <0>        -0.1446
     18 C14         0.5205   -6.9888    2.2367 C.3       1 <0>        -0.0897
     19 H3          1.4275   -7.5908    2.1826 H         1 <0>         0.1188
     20 C15         0.3146   -6.4648    3.6641 C.3       1 <0>        -0.1399
     21 C16        -0.9581   -5.6156    3.6993 C.3       1 <0>         0.0060
     22 N2         -1.5860   -5.5987    2.3384 N.4       1 <0>        -0.3777
     23 C17        -1.9452   -6.9491    1.8991 C.3       1 <0>        -0.0060
     24 C18        -0.6982   -7.8255    1.8255 C.3       1 <0>        -0.0690
     25 H4         -0.5662   -8.1862    0.8054 H         1 <0>         0.1077
     26 C19        -0.8466   -8.9962    2.7628 C.2       1 <0>        -0.1887
     27 C20        -0.7986  -10.2192    2.2959 C.2       1 <0>        -0.1430
     28 O2         -2.6008   -4.2641    0.1144 O.3       1 <0>        -0.5415
     29 H5          2.2514   -9.8481   -3.6553 H         1 <0>         0.1092
     30 H6          2.0220   -8.4547   -4.7388 H         1 <0>         0.0634
     31 H7          3.3097   -8.4243   -3.5104 H         1 <0>         0.0627
     32 H8          2.7829   -6.5743   -4.3075 H         1 <0>         0.1459
     33 H9          2.7001   -4.1430   -4.2811 H         1 <0>         0.1495
     34 H10        -0.1460   -6.8056   -1.2176 H         1 <0>         0.1332
     35 H11        -1.1155   -2.2354   -0.2925 H         1 <0>         0.1386
     36 H12         0.3327   -1.0078   -1.8554 H         1 <0>         0.1685
     37 H13         0.7614   -6.1369    0.2671 H         1 <0>         0.1126
     38 H14         1.4689   -5.1629    1.5813 H         1 <0>         0.1049
     39 H15         0.2120   -7.3052    4.3505 H         1 <0>         0.1036
     40 H16         1.1692   -5.8544    3.9559 H         1 <0>         0.1012
     41 H17        -1.6629   -6.0496    4.4084 H         1 <0>         0.1305
     42 H18        -0.7082   -4.6024    4.0143 H         1 <0>         0.1322
     43 H19        -2.6493   -7.3847    2.6081 H         1 <0>         0.1357
     44 H20        -2.4109   -6.8974    0.9150 H         1 <0>         0.1329
     45 H21        -0.9925   -8.8269    3.8194 H         1 <0>         0.1186
     46 H22        -0.6527  -10.3886    1.2393 H         1 <0>         0.1043
     47 H23        -0.9050  -11.0582    2.9676 H         1 <0>         0.1106
     48 H24        -2.5601   -3.3903    0.5265 H         1 <0>         0.3867
     49 H25        -2.4308   -5.0484    2.3780 H         1 <0>         0.4254
@<TRIPOS>BOND
     1    1    2 1
     2    1   29 1
     3    1   30 1
     4    1   31 1
     5    2    3 1
     6    3    8 ar
     7    3    4 ar
     8    4    5 ar
     9    4   32 1
    10    5    6 ar
    11    5   33 1
    12    6   12 ar
    13    6    7 ar
    14    7    8 ar
    15    7    9 ar
    16    8   34 1
    17    9   10 ar
    18    9   13 1
    19   10   11 ar
    20   10   35 1
    21   11   12 ar
    22   11   36 1
    23   13   14 1
    24   13   15 1
    25   13   28 1
    26   15   16 1
    27   15   22 1
    28   15   17 1
    29   17   18 1
    30   17   37 1
    31   17   38 1
    32   18   19 1
    33   18   24 1
    34   18   20 1
    35   20   21 1
    36   20   39 1
    37   20   40 1
    38   21   22 1
    39   21   41 1
    40   21   42 1
    41   22   23 1
    42   22   49 1
    43   23   24 1
    44   23   43 1
    45   23   44 1
    46   24   25 1
    47   24   26 1
    48   26   27 2
    49   26   45 1
    50   27   46 1
    51   27   47 1
    52   28   48 1
