@<TRIPOS>MOLECULE
ZINC43152613
   42    44     0     0     0
SMALL
USER_CHARGES

@<TRIPOS>ATOM
      1 C1         -1.4721    1.5367   -0.2372 C.3       1 <0>        -0.0927
      2 C2         -1.6509    0.0406   -0.2660 C.2       1 <0>         0.0202
      3 C3         -2.0470   -0.7014   -1.3265 C.2       1 <0>        -0.1691
      4 C4         -2.0641   -2.0402   -0.8679 C.2       1 <0>        -0.0075
      5 N1         -1.6903   -2.0221    0.3964 N.2       1 <0>        -0.2582
      6 N2         -1.4392   -0.8174    0.7658 N.pl3     1 <0>        -0.2336
      7 C5         -1.0128   -0.4428    2.0470 C.ar      1 <0>         0.1305
      8 C6         -0.1264    0.6159    2.2026 C.ar      1 <0>        -0.1049
      9 C7          0.2966    0.9879    3.4643 C.ar      1 <0>        -0.0933
     10 C8         -0.1591    0.3098    4.5776 C.ar      1 <0>        -0.0984
     11 C9         -1.0486   -0.7529    4.4308 C.ar      1 <0>        -0.0644
     12 C10        -1.4798   -1.1247    3.1601 C.ar      1 <0>        -0.0714
     13 C11        -1.5390   -1.4830    5.6261 C.ar      1 <0>         0.0378
     14 C12        -1.3245   -2.8549    5.7443 C.ar      1 <0>        -0.1044
     15 C13        -1.7827   -3.5289    6.8579 C.ar      1 <0>        -0.0349
     16 C14        -2.4543   -2.8452    7.8556 C.ar      1 <0>        -0.1825
     17 C15        -2.6699   -1.4838    7.7435 C.ar      1 <0>        -0.0182
     18 C16        -2.2104   -0.7985    6.6367 C.ar      1 <0>        -0.1754
     19 C17        -2.4402    0.6862    6.5191 C.3       1 <0>         0.5124
     20 F1         -3.2631    1.1152    7.5660 F         1 <0>        -0.1716
     21 F2         -1.2131    1.3548    6.5865 F         1 <0>        -0.1686
     22 F3         -3.0576    0.9671    5.2955 F         1 <0>        -0.1670
     23 C18        -2.9532   -3.5869    9.0689 C.3       1 <0>         0.5114
     24 F4         -2.6200   -4.9411    8.9573 F         1 <0>        -0.1721
     25 F5         -2.3597   -3.0537   10.2181 F         1 <0>        -0.1713
     26 F6         -4.3431   -3.4544    9.1576 F         1 <0>        -0.1712
     27 C19        -2.4320   -3.2330   -1.6568 C.2       1 <0>         0.6110
     28 O1         -2.7613   -3.1140   -2.8210 O.2       1 <0>        -0.5305
     29 N3         -2.4027   -4.4537   -1.0862 N.am      1 <0>        -0.8411
     30 H1         -0.4504    1.7861   -0.5236 H         1 <0>         0.0840
     31 H2         -2.1687    1.9994   -0.9363 H         1 <0>         0.0918
     32 H3         -1.6679    1.9067    0.7693 H         1 <0>         0.0765
     33 H4         -2.2975   -0.3463   -2.3152 H         1 <0>         0.1698
     34 H5          0.2332    1.1491    1.3350 H         1 <0>         0.1420
     35 H6          0.9860    1.8111    3.5801 H         1 <0>         0.1448
     36 H7          0.1742    0.6028    5.5622 H         1 <0>         0.1510
     37 H8         -2.1723   -1.9449    3.0416 H         1 <0>         0.1415
     38 H9         -0.8009   -3.3897    4.9656 H         1 <0>         0.1529
     39 H10        -1.6170   -4.5921    6.9505 H         1 <0>         0.1548
     40 H11        -3.1948   -0.9550    8.5253 H         1 <0>         0.1543
     41 H12        -2.1400   -4.5487   -0.1573 H         1 <0>         0.4073
     42 H13        -2.6444   -5.2373   -1.6044 H         1 <0>         0.4082
@<TRIPOS>BOND
     1    1    2 1
     2    1   30 1
     3    1   31 1
     4    1   32 1
     5    2    6 1
     6    2    3 2
     7    3    4 1
     8    3   33 1
     9    4    5 2
    10    4   27 1
    11    5    6 1
    12    6    7 1
    13    7   12 ar
    14    7    8 ar
    15    8    9 ar
    16    8   34 1
    17    9   10 ar
    18    9   35 1
    19   10   11 ar
    20   10   36 1
    21   11   12 ar
    22   11   13 1
    23   12   37 1
    24   13   18 ar
    25   13   14 ar
    26   14   15 ar
    27   14   38 1
    28   15   16 ar
    29   15   39 1
    30   16   17 ar
    31   16   23 1
    32   17   18 ar
    33   17   40 1
    34   18   19 1
    35   19   20 1
    36   19   21 1
    37   19   22 1
    38   23   24 1
    39   23   25 1
    40   23   26 1
    41   27   28 2
    42   27   29 am
    43   29   41 1
    44   29   42 1
@<TRIPOS>MOLECULE
ZINC01147622
   43    46     0     0     0
SMALL
USER_CHARGES
1-[(4-chlorophenyl)methyl]-3-[2-(2-furyl)-2-oxo-ethyl]-3-hydroxy-indolin-2-one
@<TRIPOS>ATOM
      1 C1         -5.6900    3.0524   -0.3164 C.ar      1 <0>        -0.1437
      2 C2         -6.2861    2.6167    0.8530 C.ar      1 <0>        -0.0717
      3 C3         -5.6484    1.6981    1.6607 C.ar      1 <0>        -0.1430
      4 C4         -4.3964    1.2017    1.3024 C.ar      1 <0>         0.1621
      5 C5         -3.8084    1.6467    0.1253 C.ar      1 <0>        -0.1391
      6 C6         -4.4469    2.5639   -0.6788 C.ar      1 <0>        -0.0421
      7 C7         -2.4789    0.9359    0.0189 C.3       1 <0>         0.1644
      8 C8         -2.4242    0.0700    1.2595 C.2       1 <0>         0.5042
      9 O1         -1.5221   -0.6752    1.5788 O.2       1 <0>        -0.4561
     10 N1         -3.5629    0.2824    1.9405 N.am      1 <0>        -0.5462
     11 C9         -3.8914   -0.3752    3.2077 C.3       1 <0>         0.1491
     12 C10        -3.3801    0.4590    4.3539 C.ar      1 <0>        -0.1125
     13 C11        -2.1060    0.2483    4.8473 C.ar      1 <0>        -0.0837
     14 C12        -1.6345    1.0169    5.8949 C.ar      1 <0>        -0.1115
     15 C13        -2.4420    1.9896    6.4570 C.ar      1 <0>        -0.0264
     16 C14        -3.7191    2.1960    5.9665 C.ar      1 <0>        -0.1118
     17 C15        -4.1874    1.4307    4.9153 C.ar      1 <0>        -0.0872
     18 Cl1        -1.8533    2.9501    7.7778 Cl        1 <0>        -0.0656
     19 C16        -1.3296    1.9459    0.0189 C.3       1 <0>        -0.1668
     20 C17        -0.0144    1.2102    0.0087 C.2       1 <0>         0.4246
     21 O2          0.0021   -0.0041    0.0020 O.2       1 <0>        -0.4086
     22 C18         1.1997    1.9334    0.0010 C.2       1 <0>        -0.1206
     23 C19         2.4695    1.3917   -0.0140 C.2       1 <0>        -0.0980
     24 C20         3.3631    2.4710   -0.0168 C.2       1 <0>        -0.2311
     25 C21         2.6234    3.6036   -0.0036 C.2       1 <0>         0.0130
     26 O3          1.3253    3.2778    0.0011 O.3       1 <0>        -0.1547
     27 O4         -2.4332    0.1274   -1.1584 O.3       1 <0>        -0.5258
     28 H1         -6.1935    3.7717   -0.9453 H         1 <0>         0.1336
     29 H2         -7.2562    2.9980    1.1356 H         1 <0>         0.1342
     30 H3         -6.1201    1.3633    2.5727 H         1 <0>         0.1273
     31 H4         -3.9782    2.9018   -1.5913 H         1 <0>         0.1320
     32 H5         -4.9727   -0.4836    3.2912 H         1 <0>         0.0995
     33 H6         -3.4241   -1.3596    3.2380 H         1 <0>         0.1032
     34 H7         -1.4774   -0.5139    4.4113 H         1 <0>         0.1359
     35 H8         -0.6375    0.8553    6.2774 H         1 <0>         0.1357
     36 H9         -4.3498    2.9554    6.4047 H         1 <0>         0.1367
     37 H10        -5.1844    1.5915    4.5325 H         1 <0>         0.1325
     38 H11        -1.3865    2.5156    0.8388 H         1 <0>         0.1018
     39 H12        -1.4000    2.5765   -0.8673 H         1 <0>         0.1253
     40 H13         2.7241    0.3421   -0.0224 H         1 <0>         0.1635
     41 H14         4.4414    2.4100   -0.0271 H         1 <0>         0.1608
     42 H15         3.0171    4.6093   -0.0020 H         1 <0>         0.2144
     43 H16        -1.6127   -0.3744   -1.2594 H         1 <0>         0.3922
@<TRIPOS>BOND
     1    1    6 ar
     2    1    2 ar
     3    1   28 1
     4    2    3 ar
     5    2   29 1
     6    3    4 ar
     7    3   30 1
     8    4   10 1
     9    4    5 ar
    10    5    6 ar
    11    5    7 1
    12    6   31 1
    13    7    8 1
    14    7   19 1
    15    7   27 1
    16    8    9 2
    17    8   10 am
    18   10   11 1
    19   11   12 1
    20   11   32 1
    21   11   33 1
    22   12   17 ar
    23   12   13 ar
    24   13   14 ar
    25   13   34 1
    26   14   15 ar
    27   14   35 1
    28   15   16 ar
    29   15   18 1
    30   16   17 ar
    31   16   36 1
    32   17   37 1
    33   19   20 1
    34   19   38 1
    35   19   39 1
    36   20   21 2
    37   20   22 1
    38   22   26 1
    39   22   23 2
    40   23   24 1
    41   23   40 1
    42   24   25 2
    43   24   41 1
    44   25   26 1
    45   25   42 1
    46   27   43 1
@<TRIPOS>MOLECULE
ZINC01147624
   43    46     0     0     0
SMALL
USER_CHARGES
1-[(4-chlorophenyl)methyl]-3-[2-(2-furyl)-2-oxo-ethyl]-3-hydroxy-indolin-2-one
@<TRIPOS>ATOM
      1 C1          3.0110    7.4781   -3.9248 C.ar      1 <0>        -0.1442
      2 C2          3.3678    7.0301   -2.6659 C.ar      1 <0>        -0.0717
      3 C3          2.3981    6.6838   -1.7481 C.ar      1 <0>        -0.1434
      4 C4          1.0493    6.7833   -2.0842 C.ar      1 <0>         0.1622
      5 C5          0.7039    7.2301   -3.3532 C.ar      1 <0>        -0.1393
      6 C6          1.6738    7.5687   -4.2698 C.ar      1 <0>        -0.0419
      7 C7         -0.8066    7.2342   -3.4061 C.3       1 <0>         0.1638
      8 C8         -1.2240    6.7379   -2.0381 C.2       1 <0>         0.5021
      9 O1         -2.3605    6.5842   -1.6433 O.2       1 <0>        -0.4502
     10 N1         -0.0987    6.4992   -1.3437 N.am      1 <0>        -0.5468
     11 C9         -0.0794    6.0034    0.0347 C.3       1 <0>         0.1498
     12 C10        -0.0590    4.4966    0.0264 C.ar      1 <0>        -0.1129
     13 C11         1.1476    3.8220    0.0117 C.ar      1 <0>        -0.0873
     14 C12         1.1670    2.4400    0.0040 C.ar      1 <0>        -0.1122
     15 C13        -0.0215    1.7317    0.0116 C.ar      1 <0>        -0.0259
     16 C14        -1.2287    2.4074    0.0210 C.ar      1 <0>        -0.1108
     17 C15        -1.2468    3.7894    0.0339 C.ar      1 <0>        -0.0819
     18 Cl1         0.0021   -0.0041    0.0020 Cl        1 <0>        -0.0659
     19 C16        -1.3308    8.6516   -3.6451 C.3       1 <0>        -0.1662
     20 C17        -2.8282    8.6684   -3.4769 C.2       1 <0>         0.4161
     21 O2         -3.4189    7.6459   -3.1934 O.2       1 <0>        -0.3994
     22 C18        -3.5451    9.8739   -3.6491 C.2       1 <0>        -0.1189
     23 C19        -4.9110   10.0333   -3.5261 C.2       1 <0>        -0.1003
     24 C20        -5.1790   11.3848   -3.7806 C.2       1 <0>        -0.2309
     25 C21        -3.9956   11.9855   -4.0431 C.2       1 <0>         0.0112
     26 O3         -3.0162   11.0773   -3.9577 O.3       1 <0>        -0.1551
     27 O4         -1.2743    6.3476   -4.4246 O.3       1 <0>        -0.5239
     28 H1          3.7741    7.7481   -4.6398 H         1 <0>         0.1335
     29 H2          4.4116    6.9514   -2.3999 H         1 <0>         0.1341
     30 H3          2.6848    6.3351   -0.7669 H         1 <0>         0.1272
     31 H4          1.3912    7.9188   -5.2516 H         1 <0>         0.1319
     32 H5         -0.9695    6.3518    0.5587 H         1 <0>         0.1022
     33 H6          0.8103    6.3760    0.5424 H         1 <0>         0.0989
     34 H7          2.0753    4.3750    0.0058 H         1 <0>         0.1316
     35 H8          2.1097    1.9131   -0.0075 H         1 <0>         0.1363
     36 H9         -2.1568    1.8551    0.0219 H         1 <0>         0.1361
     37 H10        -2.1891    4.3169    0.0455 H         1 <0>         0.1360
     38 H11        -0.9142    9.2767   -2.9851 H         1 <0>         0.1025
     39 H12        -1.0751    8.9678   -4.6564 H         1 <0>         0.1251
     40 H13        -5.6315    9.2666   -3.2820 H         1 <0>         0.1630
     41 H14        -6.1494   11.8588   -3.7691 H         1 <0>         0.1604
     42 H15        -3.8621   13.0308   -4.2794 H         1 <0>         0.2141
     43 H16        -2.2371    6.2658   -4.4630 H         1 <0>         0.3909
@<TRIPOS>BOND
     1    1    6 ar
     2    1    2 ar
     3    1   28 1
     4    2    3 ar
     5    2   29 1
     6    3    4 ar
     7    3   30 1
     8    4   10 1
     9    4    5 ar
    10    5    6 ar
    11    5    7 1
    12    6   31 1
    13    7    8 1
    14    7   19 1
    15    7   27 1
    16    8    9 2
    17    8   10 am
    18   10   11 1
    19   11   12 1
    20   11   32 1
    21   11   33 1
    22   12   17 ar
    23   12   13 ar
    24   13   14 ar
    25   13   34 1
    26   14   15 ar
    27   14   35 1
    28   15   16 ar
    29   15   18 1
    30   16   17 ar
    31   16   36 1
    32   17   37 1
    33   19   20 1
    34   19   38 1
    35   19   39 1
    36   20   21 2
    37   20   22 1
    38   22   26 1
    39   22   23 2
    40   23   24 1
    41   23   40 1
    42   24   25 2
    43   24   41 1
    44   25   26 1
    45   25   42 1
    46   27   43 1
@<TRIPOS>MOLECULE
ZINC00780132
   43    46     0     0     0
SMALL
USER_CHARGES
1-[(4-chlorophenyl)methyl]-3-hydroxy-3-[2-oxo-2-(2-thienyl)ethyl]-indolin-2-one
@<TRIPOS>ATOM
      1 C1          2.7788   -2.6940    1.5334 C.ar      1 <0>        -0.1438
      2 C2          3.0557   -1.3503    1.7080 C.ar      1 <0>        -0.0715
      3 C3          2.1867   -0.3913    1.2305 C.ar      1 <0>        -0.1432
      4 C4          1.0240   -0.7711    0.5626 C.ar      1 <0>         0.1628
      5 C5          0.7545   -2.1238    0.3984 C.ar      1 <0>        -0.1398
      6 C6          1.6234   -3.0790    0.8760 C.ar      1 <0>        -0.0422
      7 C7         -0.5589   -2.2086   -0.3447 C.3       1 <0>         0.1663
      8 C8         -0.9589   -0.7631   -0.5511 C.2       1 <0>         0.5041
      9 O1         -1.9585   -0.3651   -1.1109 O.2       1 <0>        -0.4544
     10 N1          0.0021   -0.0041    0.0020 N.am      1 <0>        -0.5466
     11 C9         -0.0178    1.4608    0.0101 C.3       1 <0>         0.1491
     12 C10        -0.7232    1.9468    1.2500 C.ar      1 <0>        -0.1121
     13 C11        -2.0882    2.1641    1.2280 C.ar      1 <0>        -0.0836
     14 C12        -2.7366    2.6044    2.3664 C.ar      1 <0>        -0.1114
     15 C13        -2.0174    2.8385    3.5249 C.ar      1 <0>        -0.0264
     16 C14        -0.6504    2.6262    3.5447 C.ar      1 <0>        -0.1118
     17 C15        -0.0040    2.1805    2.4072 C.ar      1 <0>        -0.0872
     18 Cl1        -2.8301    3.3978    4.9534 Cl        1 <0>        -0.0657
     19 C16        -1.6057   -2.9393    0.4985 C.3       1 <0>        -0.1692
     20 C17        -2.9292   -2.9268   -0.2222 C.2       1 <0>         0.4253
     21 O2         -3.0257   -2.3858   -1.3052 O.2       1 <0>        -0.4160
     22 C18        -4.0572   -3.5441    0.3619 C.2       1 <0>        -0.2776
     23 C19        -5.3549   -3.6446   -0.1296 C.2       1 <0>        -0.0540
     24 C20        -6.2665   -4.3058    0.6506 C.2       1 <0>        -0.1860
     25 C21        -5.8689   -4.8229    1.8450 C.2       1 <0>        -0.1717
     26 S1         -4.1880   -4.4054    1.9189 S.3       1 <0>         0.1622
     27 O3         -0.3843   -2.8643   -1.6023 O.3       1 <0>        -0.5262
     28 H1          3.4622   -3.4409    1.9095 H         1 <0>         0.1336
     29 H2          3.9572   -1.0501    2.2214 H         1 <0>         0.1342
     30 H3          2.4101    0.6560    1.3705 H         1 <0>         0.1272
     31 H4          1.4039   -4.1273    0.7374 H         1 <0>         0.1318
     32 H5          1.0048    1.8381    0.0023 H         1 <0>         0.0993
     33 H6         -0.5450    1.8219   -0.8730 H         1 <0>         0.1029
     34 H7         -2.6488    1.9855    0.3223 H         1 <0>         0.1358
     35 H8         -3.8037    2.7700    2.3504 H         1 <0>         0.1357
     36 H9         -0.0886    2.8085    4.4489 H         1 <0>         0.1367
     37 H10         1.0631    2.0151    2.4224 H         1 <0>         0.1325
     38 H11        -1.3149   -3.8848    0.6450 H         1 <0>         0.1100
     39 H12        -1.7113   -2.4384    1.4608 H         1 <0>         0.1125
     40 H13        -5.6314   -3.2200   -1.0833 H         1 <0>         0.1490
     41 H14        -7.2891   -4.4158    0.3213 H         1 <0>         0.1428
     42 H15        -6.4574   -5.3661    2.5696 H         1 <0>         0.1936
     43 H16        -1.1840   -2.8933   -2.1451 H         1 <0>         0.3928
@<TRIPOS>BOND
     1    1    6 ar
     2    1    2 ar
     3    1   28 1
     4    2    3 ar
     5    2   29 1
     6    3    4 ar
     7    3   30 1
     8    4   10 1
     9    4    5 ar
    10    5    6 ar
    11    5    7 1
    12    6   31 1
    13    7    8 1
    14    7   19 1
    15    7   27 1
    16    8    9 2
    17    8   10 am
    18   10   11 1
    19   11   12 1
    20   11   32 1
    21   11   33 1
    22   12   17 ar
    23   12   13 ar
    24   13   14 ar
    25   13   34 1
    26   14   15 ar
    27   14   35 1
    28   15   16 ar
    29   15   18 1
    30   16   17 ar
    31   16   36 1
    32   17   37 1
    33   19   20 1
    34   19   38 1
    35   19   39 1
    36   20   21 2
    37   20   22 1
    38   22   26 1
    39   22   23 2
    40   23   24 1
    41   23   40 1
    42   24   25 2
    43   24   41 1
    44   25   26 1
    45   25   42 1
    46   27   43 1
@<TRIPOS>MOLECULE
ZINC00780133
   43    46     0     0     0
SMALL
USER_CHARGES
1-[(4-chlorophenyl)methyl]-3-hydroxy-3-[2-oxo-2-(2-thienyl)ethyl]-indolin-2-one
@<TRIPOS>ATOM
      1 C1          3.0110    7.4781   -3.9248 C.ar      1 <0>        -0.1444
      2 C2          3.3678    7.0301   -2.6659 C.ar      1 <0>        -0.0716
      3 C3          2.3981    6.6838   -1.7481 C.ar      1 <0>        -0.1436
      4 C4          1.0493    6.7833   -2.0842 C.ar      1 <0>         0.1627
      5 C5          0.7039    7.2301   -3.3532 C.ar      1 <0>        -0.1400
      6 C6          1.6738    7.5687   -4.2698 C.ar      1 <0>        -0.0420
      7 C7         -0.8066    7.2342   -3.4061 C.3       1 <0>         0.1659
      8 C8         -1.2240    6.7379   -2.0381 C.2       1 <0>         0.5018
      9 O1         -2.3605    6.5842   -1.6433 O.2       1 <0>        -0.4483
     10 N1         -0.0987    6.4992   -1.3437 N.am      1 <0>        -0.5472
     11 C9         -0.0794    6.0034    0.0347 C.3       1 <0>         0.1499
     12 C10        -0.0590    4.4966    0.0264 C.ar      1 <0>        -0.1129
     13 C11         1.1476    3.8220    0.0117 C.ar      1 <0>        -0.0873
     14 C12         1.1670    2.4400    0.0040 C.ar      1 <0>        -0.1123
     15 C13        -0.0215    1.7317    0.0116 C.ar      1 <0>        -0.0259
     16 C14        -1.2287    2.4074    0.0210 C.ar      1 <0>        -0.1109
     17 C15        -1.2468    3.7894    0.0339 C.ar      1 <0>        -0.0819
     18 Cl1         0.0021   -0.0041    0.0020 Cl        1 <0>        -0.0659
     19 C16        -1.3308    8.6516   -3.6451 C.3       1 <0>        -0.1699
     20 C17        -2.8282    8.6684   -3.4769 C.2       1 <0>         0.4164
     21 O2         -3.4190    7.6458   -3.1934 O.2       1 <0>        -0.4066
     22 C18        -3.5447    9.8733   -3.6490 C.2       1 <0>        -0.2752
     23 C19        -4.9132   10.1024   -3.5463 C.2       1 <0>        -0.0563
     24 C20        -5.3475   11.3839   -3.7607 C.2       1 <0>        -0.1855
     25 C21        -4.4408   12.3507   -4.0693 C.2       1 <0>        -0.1729
     26 S1         -2.9320   11.4970   -4.0626 S.3       1 <0>         0.1604
     27 O3         -1.2743    6.3476   -4.4246 O.3       1 <0>        -0.5241
     28 H1          3.7741    7.7481   -4.6398 H         1 <0>         0.1335
     29 H2          4.4116    6.9514   -2.3999 H         1 <0>         0.1340
     30 H3          2.6848    6.3351   -0.7669 H         1 <0>         0.1271
     31 H4          1.3912    7.9188   -5.2516 H         1 <0>         0.1319
     32 H5         -0.9695    6.3518    0.5587 H         1 <0>         0.1021
     33 H6          0.8103    6.3760    0.5424 H         1 <0>         0.0989
     34 H7          2.0753    4.3750    0.0058 H         1 <0>         0.1316
     35 H8          2.1097    1.9131   -0.0075 H         1 <0>         0.1363
     36 H9         -2.1568    1.8551    0.0219 H         1 <0>         0.1361
     37 H10        -2.1891    4.3169    0.0455 H         1 <0>         0.1359
     38 H11        -0.9142    9.2767   -2.9851 H         1 <0>         0.1013
     39 H12        -1.0751    8.9678   -4.6564 H         1 <0>         0.1232
     40 H13        -5.6019    9.3063   -3.3049 H         1 <0>         0.1486
     41 H14        -6.3983   11.6233   -3.6904 H         1 <0>         0.1424
     42 H15        -4.6184   13.3969   -4.2702 H         1 <0>         0.1933
     43 H16        -2.2371    6.2658   -4.4630 H         1 <0>         0.3913
@<TRIPOS>BOND
     1    1    6 ar
     2    1    2 ar
     3    1   28 1
     4    2    3 ar
     5    2   29 1
     6    3    4 ar
     7    3   30 1
     8    4   10 1
     9    4    5 ar
    10    5    6 ar
    11    5    7 1
    12    6   31 1
    13    7    8 1
    14    7   19 1
    15    7   27 1
    16    8    9 2
    17    8   10 am
    18   10   11 1
    19   11   12 1
    20   11   32 1
    21   11   33 1
    22   12   17 ar
    23   12   13 ar
    24   13   14 ar
    25   13   34 1
    26   14   15 ar
    27   14   35 1
    28   15   16 ar
    29   15   18 1
    30   16   17 ar
    31   16   36 1
    32   17   37 1
    33   19   20 1
    34   19   38 1
    35   19   39 1
    36   20   21 2
    37   20   22 1
    38   22   26 1
    39   22   23 2
    40   23   24 1
    41   23   40 1
    42   24   25 2
    43   24   41 1
    44   25   26 1
    45   25   42 1
    46   27   43 1
@<TRIPOS>MOLECULE
ZINC72110942
   64    67     0     0     0
SMALL
USER_CHARGES

@<TRIPOS>ATOM
      1 C1         -1.4822    1.3177   -0.2780 C.3       1 <0>        -0.1152
      2 C2         -0.5094    0.1837   -0.0812 C.ar      1 <0>        -0.1438
      3 C3          0.0769   -0.4282   -1.1803 C.ar      1 <0>         0.1778
      4 C4          0.9737   -1.4730   -0.9955 C.ar      1 <0>        -0.1234
      5 C5          1.2817   -1.9032    0.2809 C.ar      1 <0>        -0.0855
      6 C6          0.6995   -1.2965    1.3769 C.ar      1 <0>        -0.1401
      7 C7         -0.1936   -0.2470    1.1991 C.ar      1 <0>         0.1605
      8 N1         -0.7784    0.3708    2.3100 N.am      1 <0>        -0.6698
      9 C8         -0.9762   -0.3298    3.4442 C.2       1 <0>         0.5101
     10 O1         -0.5711   -1.4697    3.5314 O.2       1 <0>        -0.5218
     11 C9         -1.7008    0.3031    4.6042 C.3       1 <0>        -0.1707
     12 N2         -0.2350    0.0061   -2.4724 N.pl3     1 <0>        -0.6230
     13 C10        -0.2166   -0.8882   -3.5250 C.ar      1 <0>         0.6269
     14 N3         -0.0219   -2.1848   -3.2945 N.ar      1 <0>        -0.6236
     15 C11        -0.0046   -3.0412   -4.3007 C.ar      1 <0>         0.4081
     16 N4         -0.1799   -2.6145   -5.5393 N.ar      1 <0>        -0.6332
     17 C12        -0.3752   -1.3197   -5.7776 C.ar      1 <0>         0.6314
     18 N5         -0.3987   -0.4563   -4.7680 N.ar      1 <0>        -0.6477
     19 N6         -0.5577   -0.8752   -7.0712 N.pl3     1 <0>        -0.5712
     20 C13        -0.7682    0.5520   -7.3497 C.3       1 <0>         0.1266
     21 C14        -2.0505    0.7100   -8.1728 C.3       1 <0>        -0.1309
     22 C15        -1.9605   -0.1678   -9.4232 C.3       1 <0>         0.0898
     23 C16        -1.8295   -1.6355   -9.0100 C.3       1 <0>        -0.1566
     24 C17        -0.5391   -1.8193   -8.1969 C.3       1 <0>         0.1268
     25 O2         -3.1415    0.0017  -10.2098 O.3       1 <0>        -0.3732
     26 C18        -2.9356   -0.1746  -11.6129 C.3       1 <0>         0.1043
     27 C19        -4.2396    0.0260  -12.3410 C.ar      1 <0>        -0.1084
     28 C20        -5.0813   -1.0493  -12.5583 C.ar      1 <0>        -0.0600
     29 C21        -6.2770   -0.8681  -13.2259 C.ar      1 <0>        -0.1255
     30 C22        -6.6333    0.3941  -13.6782 C.ar      1 <0>         0.1113
     31 C23        -5.7873    1.4714  -13.4586 C.ar      1 <0>        -0.1927
     32 C24        -4.5950    1.2860  -12.7858 C.ar      1 <0>        -0.0557
     33 O3         -7.8089    0.5748  -14.3356 O.3       1 <0>        -0.3103
     34 C25        -8.1105    1.9015  -14.7726 C.3       1 <0>         0.6042
     35 F1         -7.1160    2.3398  -15.6535 F         1 <0>        -0.1642
     36 F2         -9.3476    1.9073  -15.4259 F         1 <0>        -0.1295
     37 F3         -8.1633    2.7562  -13.6663 F         1 <0>        -0.1639
     38 H1         -0.9403    2.2633   -0.2908 H         1 <0>         0.0719
     39 H2         -2.0065    1.1865   -1.2245 H         1 <0>         0.0677
     40 H3         -2.2036    1.3234    0.5392 H         1 <0>         0.0683
     41 H4          1.4304   -1.9496   -1.8503 H         1 <0>         0.1402
     42 H5          1.9790   -2.7159    0.4221 H         1 <0>         0.1294
     43 H6          0.9418   -1.6356    2.3733 H         1 <0>         0.1482
     44 H7         -1.0416    1.3033    2.2638 H         1 <0>         0.4109
     45 H8         -1.9866    1.3218    4.3419 H         1 <0>         0.0781
     46 H9         -2.5943   -0.2770    4.8347 H         1 <0>         0.1004
     47 H10        -1.0455    0.3224    5.4750 H         1 <0>         0.1001
     48 H11        -0.4644    0.9354   -2.6295 H         1 <0>         0.4234
     49 H12         0.1537   -4.0924   -4.1105 H         1 <0>         0.2083
     50 H13        -0.8672    1.0968   -6.4107 H         1 <0>         0.1058
     51 H14         0.0786    0.9430   -7.9137 H         1 <0>         0.0715
     52 H15        -2.9076    0.4028   -7.5735 H         1 <0>         0.0763
     53 H16        -2.1672    1.7527   -8.4679 H         1 <0>         0.0861
     54 H17        -1.0890    0.1236  -10.0095 H         1 <0>         0.0651
     55 H18        -2.6887   -1.9206   -8.4028 H         1 <0>         0.0773
     56 H19        -1.7891   -2.2621   -9.9009 H         1 <0>         0.0805
     57 H20         0.3259   -1.6177   -8.8286 H         1 <0>         0.0711
     58 H21        -0.4871   -2.8397   -7.8171 H         1 <0>         0.1073
     59 H22        -2.2058    0.5534  -11.9673 H         1 <0>         0.0612
     60 H23        -2.5651   -1.1821  -11.8019 H         1 <0>         0.0616
     61 H24        -4.8035   -2.0317  -12.2060 H         1 <0>         0.1392
     62 H25        -6.9338   -1.7085  -13.3960 H         1 <0>         0.1419
     63 H26        -6.0624    2.4550  -13.8097 H         1 <0>         0.1358
     64 H27        -3.9381    2.1252  -12.6107 H         1 <0>         0.1347
@<TRIPOS>BOND
     1    1    2 1
     2    1   38 1
     3    1   39 1
     4    1   40 1
     5    2    7 ar
     6    2    3 ar
     7    3    4 ar
     8    3   12 1
     9    4    5 ar
    10    4   41 1
    11    5    6 ar
    12    5   42 1
    13    6    7 ar
    14    6   43 1
    15    7    8 1
    16    8    9 am
    17    8   44 1
    18    9   10 2
    19    9   11 1
    20   11   45 1
    21   11   46 1
    22   11   47 1
    23   12   13 1
    24   12   48 1
    25   13   18 ar
    26   13   14 ar
    27   14   15 ar
    28   15   16 ar
    29   15   49 1
    30   16   17 ar
    31   17   18 ar
    32   17   19 1
    33   19   24 1
    34   19   20 1
    35   20   21 1
    36   20   50 1
    37   20   51 1
    38   21   22 1
    39   21   52 1
    40   21   53 1
    41   22   23 1
    42   22   25 1
    43   22   54 1
    44   23   24 1
    45   23   55 1
    46   23   56 1
    47   24   57 1
    48   24   58 1
    49   25   26 1
    50   26   27 1
    51   26   59 1
    52   26   60 1
    53   27   32 ar
    54   27   28 ar
    55   28   29 ar
    56   28   61 1
    57   29   30 ar
    58   29   62 1
    59   30   31 ar
    60   30   33 1
    61   31   32 ar
    62   31   63 1
    63   32   64 1
    64   33   34 1
    65   34   35 1
    66   34   36 1
    67   34   37 1
@<TRIPOS>MOLECULE
ZINC14982453
   41    43     0     0     0
SMALL
USER_CHARGES
5-(4-chlorophenyl)-N-(3,5-dimethoxyphenyl)furan-2-carboxamide
@<TRIPOS>ATOM
      1 C1          2.6766   -2.4088    1.0951 C.3       1 <0>         0.0261
      2 O1          1.4013   -1.7670    1.1562 O.3       1 <0>        -0.3115
      3 C2          1.2979   -0.5435    0.5738 C.ar      1 <0>         0.1852
      4 C3          0.0890    0.1348    0.5966 C.ar      1 <0>        -0.2114
      5 C4         -0.0165    1.3849    0.0016 C.ar      1 <0>         0.2188
      6 C5          1.0890    1.9545   -0.6158 C.ar      1 <0>        -0.1889
      7 C6          2.2972    1.2750   -0.6373 C.ar      1 <0>         0.1853
      8 C7          2.4018    0.0264   -0.0427 C.ar      1 <0>        -0.3081
      9 O2          3.3796    1.8328   -1.2408 O.3       1 <0>        -0.3088
     10 C8          4.5923    1.0771   -1.2250 C.3       1 <0>         0.0257
     11 N1         -1.2367    2.0671    0.0192 N.am      1 <0>        -0.6612
     12 C9         -1.2562    3.4103    0.1283 C.2       1 <0>         0.6085
     13 O3         -0.2122    4.0363    0.1269 O.2       1 <0>        -0.4884
     14 C10        -2.5336    4.1167    0.2485 C.2       1 <0>        -0.0814
     15 C11        -2.6960    5.4796    0.3719 C.2       1 <0>        -0.1003
     16 C12        -4.0719    5.7162    0.4533 C.2       1 <0>        -0.1969
     17 C13        -4.6928    4.5018    0.3869 C.2       1 <0>         0.0677
     18 O4         -3.7567    3.5459    0.2637 O.3       1 <0>        -0.1559
     19 C14        -6.1512    4.2764    0.4422 C.ar      1 <0>        -0.0249
     20 C15        -7.0233    5.3587    0.5787 C.ar      1 <0>        -0.0777
     21 C16        -8.3844    5.1420    0.6249 C.ar      1 <0>        -0.1062
     22 C17        -8.8865    3.8536    0.5470 C.ar      1 <0>        -0.0241
     23 C18        -8.0266    2.7757    0.4168 C.ar      1 <0>        -0.1072
     24 C19        -6.6638    2.9796    0.3641 C.ar      1 <0>        -0.0837
     25 Cl1       -10.6009    3.5885    0.6132 Cl        1 <0>        -0.0594
     26 H1          2.9599   -2.5557    0.0529 H         1 <0>         0.0569
     27 H2          3.4213   -1.7852    1.5897 H         1 <0>         0.0568
     28 H3          2.6214   -3.3753    1.5962 H         1 <0>         0.1037
     29 H4         -0.7703   -0.3088    1.0774 H         1 <0>         0.1377
     30 H5          1.0076    2.9266   -1.0792 H         1 <0>         0.1505
     31 H6          3.3434   -0.5023   -0.0595 H         1 <0>         0.1371
     32 H7          5.3749    1.6353   -1.7390 H         1 <0>         0.1038
     33 H8          4.8936    0.8952   -0.1934 H         1 <0>         0.0565
     34 H9          4.4336    0.1246   -1.7306 H         1 <0>         0.0564
     35 H10        -2.0692    1.5737   -0.0472 H         1 <0>         0.4196
     36 H11        -1.9121    6.2220    0.3979 H         1 <0>         0.1686
     37 H12        -4.5527    6.6779    0.5543 H         1 <0>         0.1641
     38 H13        -6.6327    6.3635    0.6437 H         1 <0>         0.1419
     39 H14        -9.0601    5.9784    0.7263 H         1 <0>         0.1435
     40 H15        -8.4242    1.7733    0.3569 H         1 <0>         0.1416
     41 H16        -5.9942    2.1382    0.2630 H         1 <0>         0.1400
@<TRIPOS>BOND
     1    1    2 1
     2    1   26 1
     3    1   27 1
     4    1   28 1
     5    2    3 1
     6    3    8 ar
     7    3    4 ar
     8    4    5 ar
     9    4   29 1
    10    5    6 ar
    11    5   11 1
    12    6    7 ar
    13    6   30 1
    14    7    8 ar
    15    7    9 1
    16    8   31 1
    17    9   10 1
    18   10   32 1
    19   10   33 1
    20   10   34 1
    21   11   12 am
    22   11   35 1
    23   12   13 2
    24   12   14 1
    25   14   18 1
    26   14   15 2
    27   15   16 1
    28   15   36 1
    29   16   17 2
    30   16   37 1
    31   17   18 1
    32   17   19 1
    33   19   24 ar
    34   19   20 ar
    35   20   21 ar
    36   20   38 1
    37   21   22 ar
    38   21   39 1
    39   22   23 ar
    40   22   25 1
    41   23   24 ar
    42   23   40 1
    43   24   41 1
@<TRIPOS>MOLECULE
ZINC00006785
   32    33     0     0     0
SMALL
USER_CHARGES

@<TRIPOS>ATOM
      1 C1         -0.0272    1.4478   -0.0765 C.ar      1 <0>        -0.0704
      2 C2          1.1687    2.1324   -0.0739 C.ar      1 <0>        -0.1422
      3 C3          2.3698    1.4363   -0.0228 C.ar      1 <0>         0.1014
      4 C4          2.3712    0.0479    0.0255 C.ar      1 <0>        -0.1239
      5 C5          1.1800   -0.6448    0.0233 C.ar      1 <0>        -0.0629
      6 C6         -0.0305    0.0513   -0.0276 C.ar      1 <0>        -0.0571
      7 C7         -1.3076   -0.6856   -0.0301 C.2       1 <0>         0.1214
      8 N1         -1.3085   -1.9823    0.0154 N.2       1 <0>        -0.2503
      9 N2         -2.5219   -2.6825    0.0130 N.am      1 <0>        -0.5857
     10 C8         -2.5229   -4.0295    0.0602 C.2       1 <0>         0.7344
     11 O1         -3.5761   -4.6372    0.0581 O.2       1 <0>        -0.5817
     12 N3         -1.3564   -4.7028    0.1098 N.am      1 <0>        -0.8485
     13 O2          3.5463    2.1151   -0.0204 O.3       1 <0>        -0.2534
     14 C9          3.8441    2.8721    1.0685 C.ar      1 <0>         0.1106
     15 C10         3.0248    2.8316    2.1874 C.ar      1 <0>        -0.1656
     16 C11         3.3287    3.6015    3.2934 C.ar      1 <0>        -0.1145
     17 C12         4.4501    4.4136    3.2855 C.ar      1 <0>         0.0686
     18 C13         5.2685    4.4554    2.1694 C.ar      1 <0>        -0.1149
     19 C14         4.9708    3.6816    1.0644 C.ar      1 <0>        -0.1137
     20 F1          4.7459    5.1663    4.3677 F         1 <0>        -0.1378
     21 H1         -0.9606    1.9899   -0.1118 H         1 <0>         0.1390
     22 H2          1.1722    3.2117   -0.1121 H         1 <0>         0.1375
     23 H3          3.3073   -0.4893    0.0644 H         1 <0>         0.1394
     24 H4          1.1821   -1.7242    0.0605 H         1 <0>         0.1426
     25 H5         -2.2423   -0.1460   -0.0698 H         1 <0>         0.1277
     26 H6         -3.3614   -2.1979   -0.0227 H         1 <0>         0.4041
     27 H7         -0.5162   -4.2180    0.1114 H         1 <0>         0.4079
     28 H8         -1.3571   -5.6722    0.1438 H         1 <0>         0.4165
     29 H9          2.1496    2.1989    2.1936 H         1 <0>         0.1399
     30 H10         2.6911    3.5703    4.1645 H         1 <0>         0.1407
     31 H11         6.1427    5.0895    2.1645 H         1 <0>         0.1460
     32 H12         5.6122    3.7104    0.1960 H         1 <0>         0.1449
@<TRIPOS>BOND
     1    1    6 ar
     2    1    2 ar
     3    1   21 1
     4    2    3 ar
     5    2   22 1
     6    3    4 ar
     7    3   13 1
     8    4    5 ar
     9    4   23 1
    10    5    6 ar
    11    5   24 1
    12    6    7 1
    13    7    8 2
    14    7   25 1
    15    8    9 1
    16    9   10 am
    17    9   26 1
    18   10   11 2
    19   10   12 am
    20   12   27 1
    21   12   28 1
    22   13   14 1
    23   14   19 ar
    24   14   15 ar
    25   15   16 ar
    26   15   29 1
    27   16   17 ar
    28   16   30 1
    29   17   18 ar
    30   17   20 1
    31   18   19 ar
    32   18   31 1
    33   19   32 1
@<TRIPOS>MOLECULE
ZINC13780673
   40    43     0     0     0
SMALL
USER_CHARGES

@<TRIPOS>ATOM
      1 C1         -0.0187    1.5258    0.0104 C.3       1 <0>         0.0577
      2 C2          0.0021   -0.0041    0.0020 C.3       1 <0>         0.0829
      3 C3         -1.4351   -0.5420    0.0455 C.3       1 <0>         0.1250
      4 H1         -2.0006   -0.1509   -0.8004 H         1 <0>         0.1521
      5 C4         -1.3858   -2.0714   -0.0276 C.3       1 <0>        -0.1340
      6 H2         -0.8765   -2.3804   -0.9404 H         1 <0>         0.1388
      7 C5         -2.8083   -2.6349   -0.0132 C.3       1 <0>         0.3180
      8 H3         -3.3778   -2.1552    0.7829 H         1 <0>         0.1456
      9 N1         -2.7842   -4.0760    0.2122 N.pl3     1 <0>        -0.6545
     10 C6         -1.7931   -4.7072    0.7510 C.cat     1 <0>         0.7597
     11 N2         -0.6435   -4.0626    1.1502 N.pl3     1 <0>        -0.6808
     12 C7         -0.6233   -2.5994    1.1965 C.3       1 <0>         0.1931
     13 C8          0.8021   -2.0500    1.1832 C.3       1 <0>         0.0814
     14 H4          1.3046   -2.3605    0.2671 H         1 <0>         0.1093
     15 C9          0.7432   -0.5188    1.2432 C.3       1 <0>         0.0491
     16 H5          1.7530   -0.1092    1.2691 H         1 <0>         0.1496
     17 O1          0.0135   -0.1181    2.4074 O.3       1 <0>        -0.3675
     18 C10        -1.3377   -0.5848    2.4466 C.3       1 <0>         0.4024
     19 C11        -1.3324   -2.1197    2.4658 C.3       1 <0>         0.0826
     20 H6         -0.7964   -2.4762    3.3455 H         1 <0>         0.1167
     21 O2         -2.6751   -2.6084    2.4846 O.3       1 <0>        -0.5564
     22 O3         -2.0432   -0.1208    1.2695 O.3       1 <0>        -0.3740
     23 O4         -1.9821   -0.0918    3.6229 O.3       1 <0>        -0.4946
     24 O5          1.5181   -2.5489    2.3147 O.3       1 <0>        -0.5500
     25 N3         -1.8900   -6.0666    0.9318 N.pl3     1 <0>        -0.8162
     26 O6         -3.4350   -2.3676   -1.2693 O.3       1 <0>        -0.5386
     27 O7          0.6572   -0.4709   -1.1790 O.3       1 <0>        -0.5383
     28 O8          1.3220    2.0204    0.0003 O.3       1 <0>        -0.5740
     29 H7         -0.5459    1.8868   -0.8726 H         1 <0>         0.0694
     30 H8         -0.5289    1.8773    0.9072 H         1 <0>         0.0685
     31 H9          0.1509   -4.5667    1.3864 H         1 <0>         0.4431
     32 H10        -3.1805   -2.3399    3.2640 H         1 <0>         0.4094
     33 H11        -2.0133    0.8730    3.6793 H         1 <0>         0.4104
     34 H12         2.4326   -2.2393    2.3692 H         1 <0>         0.4055
     35 H13        -2.6928   -6.5365    0.6566 H         1 <0>         0.4369
     36 H14        -1.1557   -6.5559    1.3346 H         1 <0>         0.4375
     37 H15        -4.3420   -2.6966   -1.3342 H         1 <0>         0.4024
     38 H16         1.5739   -0.1749   -1.2634 H         1 <0>         0.4012
     39 H17         1.3852    2.9853    0.0049 H         1 <0>         0.3990
     40 H18        -3.5595   -4.5922   -0.0586 H         1 <0>         0.4318
@<TRIPOS>BOND
     1    1    2 1
     2    1   28 1
     3    1   29 1
     4    1   30 1
     5    2   15 1
     6    2    3 1
     7    2   27 1
     8    3    4 1
     9    3   22 1
    10    3    5 1
    11    5    6 1
    12    5   12 1
    13    5    7 1
    14    7    8 1
    15    7    9 1
    16    7   26 1
    17    9   10 2
    18    9   40 1
    19   10   11 1
    20   10   25 1
    21   11   12 1
    22   11   31 1
    23   12   19 1
    24   12   13 1
    25   13   14 1
    26   13   15 1
    27   13   24 1
    28   15   16 1
    29   15   17 1
    30   17   18 1
    31   18   19 1
    32   18   22 1
    33   18   23 1
    34   19   20 1
    35   19   21 1
    36   21   32 1
    37   23   33 1
    38   24   34 1
    39   25   35 1
    40   25   36 1
    41   26   37 1
    42   27   38 1
    43   28   39 1
@<TRIPOS>MOLECULE
ZINC01530811
   44    44     0     0     0
SMALL
USER_CHARGES

@<TRIPOS>ATOM
      1 C1         -0.0187    1.5258    0.0104 C.3       1 <0>        -0.1552
      2 C2          0.0021   -0.0041    0.0020 C.3       1 <0>        -0.1218
      3 C3         -1.4333   -0.5336    0.0129 C.3       1 <0>        -0.1330
      4 C4         -1.4126   -2.0635    0.0045 C.3       1 <0>         0.1126
      5 N1         -2.7870   -2.5706    0.0149 N.pl3     1 <0>        -0.7283
      6 C5         -3.0224   -3.9406    0.0098 C.ar      1 <0>         0.2665
      7 C6         -1.9508   -4.8295    0.0006 C.ar      1 <0>        -0.2115
      8 C7         -2.1795   -6.1814   -0.0040 C.ar      1 <0>         0.0070
      9 C8         -3.4910   -6.6671    0.0005 C.ar      1 <0>        -0.2114
     10 C9         -4.5651   -5.7715    0.0097 C.ar      1 <0>        -0.0097
     11 C10        -4.3293   -4.4208    0.0197 C.ar      1 <0>        -0.2142
     12 C11        -3.7406   -8.1197   -0.0049 C.2       1 <0>         0.5244
     13 O1         -2.8063   -8.8967   -0.0133 O.2       1 <0>        -0.4985
     14 O2         -5.0049   -8.5861   -0.0005 O.3       1 <0>        -0.3704
     15 C12        -5.1729  -10.0052   -0.0062 C.3       1 <0>         0.0311
     16 C13        -6.6653  -10.3421   -0.0000 C.3       1 <0>        -0.0016
     17 N2         -7.2783   -9.8732   -1.2499 N.4       1 <0>        -0.3894
     18 C14        -6.7157  -10.6213   -2.3821 C.3       1 <0>        -0.0551
     19 C15        -8.7304  -10.0884   -1.1940 C.3       1 <0>        -0.0472
     20 H1          1.0039    1.9031    0.0027 H         1 <0>         0.0594
     21 H2         -0.5459    1.8868   -0.8726 H         1 <0>         0.0554
     22 H3         -0.5289    1.8773    0.9072 H         1 <0>         0.0556
     23 H4          0.5123   -0.3556   -0.8948 H         1 <0>         0.0660
     24 H5          0.5293   -0.3651    0.8851 H         1 <0>         0.0663
     25 H6         -1.9435   -0.1821    0.9097 H         1 <0>         0.0711
     26 H7         -1.9605   -0.1726   -0.8702 H         1 <0>         0.0709
     27 H8         -0.9024   -2.4150   -0.8923 H         1 <0>         0.0688
     28 H9         -0.8854   -2.4246    0.8875 H         1 <0>         0.0690
     29 H10        -3.5327   -1.9503    0.0253 H         1 <0>         0.4062
     30 H11        -0.9383   -4.4538   -0.0033 H         1 <0>         0.1354
     31 H12        -1.3478   -6.8704   -0.0115 H         1 <0>         0.1381
     32 H13        -5.5790   -6.1433    0.0133 H         1 <0>         0.1303
     33 H14        -5.1583   -3.7287    0.0309 H         1 <0>         0.1315
     34 H15        -4.7099  -10.4223   -0.9005 H         1 <0>         0.0927
     35 H16        -4.7007  -10.4305    0.8794 H         1 <0>         0.1143
     36 H17        -6.7938  -11.4211    0.0852 H         1 <0>         0.1503
     37 H18        -7.1452   -9.8510    0.8466 H         1 <0>         0.1433
     38 H19        -7.1706  -10.2734   -3.3095 H         1 <0>         0.1275
     39 H20        -5.6383  -10.4617   -2.4236 H         1 <0>         0.1218
     40 H21        -6.9208  -11.6841   -2.2531 H         1 <0>         0.1253
     41 H22        -9.1479   -9.5332   -0.3540 H         1 <0>         0.1249
     42 H23        -9.1853   -9.7404   -2.1214 H         1 <0>         0.1257
     43 H24        -8.9355  -11.1511   -1.0651 H         1 <0>         0.1232
     44 H25        -7.0885   -8.8894   -1.3693 H         1 <0>         0.4327
@<TRIPOS>BOND
     1    1    2 1
     2    1   20 1
     3    1   21 1
     4    1   22 1
     5    2    3 1
     6    2   23 1
     7    2   24 1
     8    3    4 1
     9    3   25 1
    10    3   26 1
    11    4    5 1
    12    4   27 1
    13    4   28 1
    14    5    6 1
    15    5   29 1
    16    6   11 ar
    17    6    7 ar
    18    7    8 ar
    19    7   30 1
    20    8    9 ar
    21    8   31 1
    22    9   10 ar
    23    9   12 1
    24   10   11 ar
    25   10   32 1
    26   11   33 1
    27   12   13 2
    28   12   14 1
    29   14   15 1
    30   15   16 1
    31   15   34 1
    32   15   35 1
    33   16   17 1
    34   16   36 1
    35   16   37 1
    36   17   18 1
    37   17   19 1
    38   17   44 1
    39   18   38 1
    40   18   39 1
    41   18   40 1
    42   19   41 1
    43   19   42 1
    44   19   43 1
