@<TRIPOS>MOLECULE
ZINC01043118
   37    39     0     0     0
SMALL
USER_CHARGES
2-[2-(4-chloro-3-methyl-phenyl)-2-oxo-ethyl]sulfanyl-4-hydroxy-6-(2-thienyl)pyrimidine-5-carbonitrile
@<TRIPOS>ATOM
      1 C1         -4.9989    1.1279    0.0324 C.3       1 <0>        -0.1175
      2 C2         -3.7009    1.8936    0.0304 C.ar      1 <0>        -0.0918
      3 C3         -2.5018    1.2140    0.0205 C.ar      1 <0>        -0.0491
      4 C4         -1.2981    1.9265    0.0187 C.ar      1 <0>        -0.1513
      5 C5         -1.3208    3.3254    0.0322 C.ar      1 <0>        -0.0606
      6 C6         -2.5272    3.9914    0.0358 C.ar      1 <0>        -0.1175
      7 C7         -3.7158    3.2789    0.0380 C.ar      1 <0>        -0.0097
      8 Cl1        -5.2309    4.1264    0.0498 Cl        1 <0>        -0.0637
      9 C8         -0.0144    1.2084    0.0087 C.2       1 <0>         0.4159
     10 O1          0.0021   -0.0041    0.0020 O.2       1 <0>        -0.4348
     11 C9          1.2803    1.9796    0.0005 C.3       1 <0>        -0.1715
     12 S1          2.6718    0.8223   -0.0190 S.3       1 <0>         0.0335
     13 C10         4.0166    1.9608   -0.0258 C.ar      1 <0>         0.3421
     14 N1          5.2545    1.4893   -0.0401 N.ar      1 <0>        -0.5632
     15 C11         6.3009    2.3146   -0.0457 C.ar      1 <0>         0.3197
     16 C12         6.0677    3.7097   -0.0360 C.ar      1 <0>        -0.2498
     17 C13         4.7333    4.1573   -0.0208 C.ar      1 <0>         0.4837
     18 N2          3.7555    3.2617   -0.0217 N.ar      1 <0>        -0.6020
     19 O2          4.4527    5.4813   -0.0111 O.3       1 <0>        -0.6587
     20 C14         7.1571    4.6392   -0.0418 C.1       1 <0>         0.3008
     21 N3          8.0212    5.3766   -0.0465 N.1       1 <0>        -0.4612
     22 C15         7.6740    1.7841   -0.0621 C.2       1 <0>        -0.1247
     23 C16         8.1772    0.6491    0.5470 C.2       1 <0>        -0.1149
     24 C17         9.5139    0.3798    0.3639 C.2       1 <0>        -0.1648
     25 C18        10.2641    1.2296   -0.3815 C.2       1 <0>        -0.2215
     26 S2          9.1240    2.4421   -0.8666 S.3       1 <0>         0.1445
     27 H1         -4.7878    0.0484    0.0255 H         1 <0>         0.0728
     28 H2         -5.5824    1.3931   -0.8616 H         1 <0>         0.0756
     29 H3         -5.5739    1.3834    0.9347 H         1 <0>         0.0756
     30 H4         -2.4916    0.1341    0.0146 H         1 <0>         0.1442
     31 H5         -0.3953    3.8819    0.0350 H         1 <0>         0.1508
     32 H6         -2.5463    5.0712    0.0414 H         1 <0>         0.1423
     33 H7          1.3214    2.6176   -0.8947 H         1 <0>         0.1343
     34 H8          1.3386    2.6079    0.9015 H         1 <0>         0.1340
     35 H9          7.5476    0.0006    1.1382 H         1 <0>         0.1439
     36 H10         9.9617   -0.4948    0.8123 H         1 <0>         0.1319
     37 H11        11.3165    1.1664   -0.6155 H         1 <0>         0.1827
@<TRIPOS>BOND
     1    1    2 1
     2    1   27 1
     3    1   28 1
     4    1   29 1
     5    2    7 ar
     6    2    3 ar
     7    3    4 ar
     8    3   30 1
     9    4    5 ar
    10    4    9 1
    11    5    6 ar
    12    5   31 1
    13    6    7 ar
    14    6   32 1
    15    7    8 1
    16    9   10 2
    17    9   11 1
    18   11   12 1
    19   11   33 1
    20   11   34 1
    21   12   13 1
    22   13   18 ar
    23   13   14 ar
    24   14   15 ar
    25   15   16 ar
    26   15   22 1
    27   16   17 ar
    28   16   20 1
    29   17   18 ar
    30   17   19 1
    31   20   21 3
    32   22   26 1
    33   22   23 2
    34   23   24 1
    35   23   35 1
    36   24   25 2
    37   24   36 1
    38   25   26 1
    39   25   37 1
@<TRIPOS>MOLECULE
ZINC01043118
   38    40     0     0     0
SMALL
USER_CHARGES
2-[2-(4-chloro-3-methyl-phenyl)-2-oxo-ethyl]sulfanyl-4-oxo-6-(2-thienyl)-3H-pyrimidine-5-carbonitrile
@<TRIPOS>ATOM
      1 C1          8.0255    9.6838   -0.0801 C.3       1 <0>        -0.1235
      2 C2          6.8750    8.7106   -0.0669 C.ar      1 <0>        -0.0852
      3 C3          5.5787    9.1787   -0.0477 C.ar      1 <0>        -0.0447
      4 C4          4.5120    8.2738   -0.0354 C.ar      1 <0>        -0.1574
      5 C5          4.7700    6.8986   -0.0373 C.ar      1 <0>        -0.0651
      6 C6          6.0709    6.4451   -0.0629 C.ar      1 <0>        -0.1173
      7 C7          7.1227    7.3475   -0.0746 C.ar      1 <0>        -0.0061
      8 Cl1         8.7587    6.7670   -0.0993 Cl        1 <0>        -0.0533
      9 C8          3.1260    8.7656   -0.0144 C.2       1 <0>         0.4157
     10 O1          2.9058    9.9580   -0.0076 O.2       1 <0>        -0.4268
     11 C9          1.9796    7.7876   -0.0012 C.3       1 <0>        -0.1752
     12 S1          0.4132    8.6942    0.0238 S.3       1 <0>         0.1182
     13 C10        -0.7207    7.3457    0.0356 C.ar      1 <0>         0.3581
     14 N1         -2.0582    7.6058    0.0716 N.ar      1 <0>        -0.5448
     15 H1         -4.6514    5.9566    0.0982 H         1 <0>         0.4336
     16 C11        -2.9508    6.5937    0.0760 C.ar      1 <0>         0.4839
     17 O2         -4.1482    6.8208    0.0989 O.3       1 <0>        -0.3712
     18 C12        -2.4684    5.2621    0.0197 C.ar      1 <0>        -0.2887
     19 C13        -1.0713    5.0572    0.0003 C.ar      1 <0>         0.3835
     20 N2         -0.2517    6.1150    0.0094 N.ar      1 <0>        -0.5599
     21 C14        -0.5228    3.6953   -0.0295 C.2       1 <0>        -0.1938
     22 C15         0.8011    3.2874   -0.0516 C.2       1 <0>        -0.0645
     23 C16         1.0383    1.9342   -0.0783 C.2       1 <0>        -0.1808
     24 C17        -0.0147    1.0766   -0.0816 C.2       1 <0>        -0.1834
     25 S2         -1.3875    2.1350   -0.0552 S.3       1 <0>         0.1677
     26 C18        -3.3738    4.1530   -0.0004 C.1       1 <0>         0.2383
     27 N3         -4.0922    3.2730   -0.0164 N.1       1 <0>        -0.3690
     28 H2          8.3171    9.9157    0.9441 H         1 <0>         0.0804
     29 H3          8.8704    9.2404   -0.6070 H         1 <0>         0.0772
     30 H4          7.7210   10.5994   -0.5874 H         1 <0>         0.0762
     31 H5          5.3869   10.2415   -0.0417 H         1 <0>         0.1466
     32 H6          3.9514    6.1943   -0.0238 H         1 <0>         0.1436
     33 H7          6.2716    5.3839   -0.0693 H         1 <0>         0.1432
     34 H8          2.0435    7.2101    0.8128 H         1 <0>         0.1216
     35 H9          2.0240    7.1636   -0.8937 H         1 <0>         0.1379
     36 H10         1.6111    4.0017   -0.0477 H         1 <0>         0.1502
     37 H11         2.0502    1.5571   -0.0967 H         1 <0>         0.1427
     38 H12        -0.0003   -0.0031   -0.1010 H         1 <0>         0.1921
@<TRIPOS>BOND
     1    1    2 1
     2    1   28 1
     3    1   29 1
     4    1   30 1
     5    2    7 ar
     6    2    3 ar
     7    3    4 ar
     8    3   31 1
     9    4    5 ar
    10    4    9 1
    11    5    6 ar
    12    5   32 1
    13    6    7 ar
    14    6   33 1
    15    7    8 1
    16    9   10 2
    17    9   11 1
    18   11   12 1
    19   11   34 1
    20   11   35 1
    21   12   13 1
    22   13   20 ar
    23   13   14 ar
    24   14   16 ar
    25   15   17 1
    26   16   17 1
    27   16   18 ar
    28   18   26 1
    29   18   19 ar
    30   19   21 1
    31   19   20 ar
    32   21   25 1
    33   21   22 2
    34   22   23 1
    35   22   36 1
    36   23   24 2
    37   23   37 1
    38   24   25 1
    39   24   38 1
    40   26   27 3
@<TRIPOS>MOLECULE
ZINC00077081
   21    22     0     0     0
SMALL
USER_CHARGES
methyl (2S)-6-chloro-2-oxo-3H-benzo[d]dithiazole-4-carboxylate
@<TRIPOS>ATOM
      1 C1          3.7094   -2.4070   -0.1391 C.3       1 <0>         0.0352
      2 O1          3.7076   -0.9550   -0.1388 O.3       1 <0>        -0.3456
      3 C2          2.5116   -0.3447   -0.0228 C.2       1 <0>         0.5237
      4 O2          1.4980   -1.0078    0.0754 O.2       1 <0>        -0.5128
      5 C3          2.4331    1.1261   -0.0151 C.ar      1 <0>        -0.1516
      6 C4          3.6078    1.8631   -0.0043 C.ar      1 <0>        -0.0107
      7 C5          3.5775    3.2406    0.0032 C.ar      1 <0>        -0.0667
      8 C6          2.3458    3.8765    0.0001 C.ar      1 <0>         0.0082
      9 C7          1.1713    3.1491   -0.0103 C.ar      1 <0>        -0.0432
     10 C8          1.1449    1.7541   -0.0186 C.ar      1 <0>         0.2231
     11 N1         -0.0111    0.9660   -0.0301 N.pl3     1 <0>        -0.8941
     12 S1         -1.4203    1.8718   -0.0398 S.o       1 <0>         1.5401
     13 O3         -1.9338    1.7226    1.2768 O.2       1 <0>        -0.7698
     14 S2         -0.5167    3.7452   -0.0162 S.3       1 <0>        -0.5133
     15 Cl1         5.0501    4.1599    0.0168 Cl        1 <0>        -0.0351
     16 H1          3.2843   -2.7710    0.7963 H         1 <0>         0.0674
     17 H2          3.1126   -2.7709   -0.9754 H         1 <0>         0.0684
     18 H3          4.7327   -2.7690   -0.2383 H         1 <0>         0.1090
     19 H4          4.5585    1.3508   -0.0020 H         1 <0>         0.1603
     20 H5          2.3037    4.9556    0.0058 H         1 <0>         0.1600
     21 H6          0.0020   -0.0039   -0.0360 H         1 <0>         0.4474
@<TRIPOS>BOND
     1    1    2 1
     2    1   16 1
     3    1   17 1
     4    1   18 1
     5    2    3 1
     6    3    4 2
     7    3    5 1
     8    5   10 ar
     9    5    6 ar
    10    6    7 ar
    11    6   19 1
    12    7    8 ar
    13    7   15 1
    14    8    9 ar
    15    8   20 1
    16    9   14 1
    17    9   10 ar
    18   10   11 1
    19   11   12 1
    20   11   21 1
    21   12   13 2
    22   12   14 1
@<TRIPOS>MOLECULE
ZINC12368153
   21    22     0     0     0
SMALL
USER_CHARGES
methyl (2R)-6-chloro-2-oxo-3H-benzo[d]dithiazole-4-carboxylate
@<TRIPOS>ATOM
      1 C1          3.7094   -2.4070   -0.1401 C.3       1 <0>         0.0352
      2 O1          3.7076   -0.9550   -0.1393 O.3       1 <0>        -0.3457
      3 C2          2.5116   -0.3447   -0.0233 C.2       1 <0>         0.5237
      4 O2          1.4980   -1.0079    0.0745 O.2       1 <0>        -0.5128
      5 C3          2.4331    1.1261   -0.0151 C.ar      1 <0>        -0.1515
      6 C4          3.6078    1.8631   -0.0038 C.ar      1 <0>        -0.0108
      7 C5          3.5775    3.2406    0.0045 C.ar      1 <0>        -0.0666
      8 C6          2.3458    3.8764    0.0010 C.ar      1 <0>         0.0081
      9 C7          1.1714    3.1491   -0.0103 C.ar      1 <0>        -0.0432
     10 C8          1.1449    1.7541   -0.0186 C.ar      1 <0>         0.2229
     11 N1         -0.0111    0.9660   -0.0301 N.pl3     1 <0>        -0.8935
     12 S1         -1.4203    1.8718   -0.0397 S.o       1 <0>         1.5406
     13 O3         -1.9051    1.7392   -1.3688 O.2       1 <0>        -0.7713
     14 S2         -0.5167    3.7452   -0.0161 S.3       1 <0>        -0.5128
     15 Cl1         5.0501    4.1599    0.0187 Cl        1 <0>        -0.0351
     16 H1          3.2841   -2.7713    0.7951 H         1 <0>         0.0687
     17 H2          3.1127   -2.7706   -0.9766 H         1 <0>         0.0672
     18 H3          4.7327   -2.7690   -0.2393 H         1 <0>         0.1090
     19 H4          4.5585    1.3507   -0.0012 H         1 <0>         0.1604
     20 H5          2.3038    4.9556    0.0071 H         1 <0>         0.1600
     21 H6          0.0020   -0.0039   -0.0360 H         1 <0>         0.4475
@<TRIPOS>BOND
     1    1    2 1
     2    1   16 1
     3    1   17 1
     4    1   18 1
     5    2    3 1
     6    3    4 2
     7    3    5 1
     8    5   10 ar
     9    5    6 ar
    10    6    7 ar
    11    6   19 1
    12    7    8 ar
    13    7   15 1
    14    8    9 ar
    15    8   20 1
    16    9   14 1
    17    9   10 ar
    18   10   11 1
    19   11   12 1
    20   11   21 1
    21   12   13 2
    22   12   14 1
