@<TRIPOS>MOLECULE
ZINC13816313
   27    29     0     0     0
SMALL
USER_CHARGES

@<TRIPOS>ATOM
      1 C1          0.1361    1.2754   -0.2432 C.ar      1 <0>        -0.1261
      2 C2          1.3137    1.9630   -0.0245 C.ar      1 <0>        -0.1243
      3 C3          2.3514    1.3592    0.6655 C.ar      1 <0>         0.0761
      4 C4          2.2109    0.0652    1.1381 C.ar      1 <0>        -0.1224
      5 C5          1.0350   -0.6262    0.9222 C.ar      1 <0>        -0.1088
      6 C6         -0.0071   -0.0227    0.2299 C.ar      1 <0>         0.1544
      7 N1         -1.1986   -0.7207    0.0101 N.pl3     1 <0>        -0.6392
      8 C7         -1.1818   -2.1126   -0.1030 C.2       1 <0>         0.3784
      9 C8         -2.3474   -2.9839   -0.2182 C.ar      1 <0>        -0.3511
     10 C9         -3.7377   -2.7850   -0.2544 C.ar      1 <0>         0.5213
     11 N2         -4.5246   -3.8502   -0.3717 N.ar      1 <0>        -0.6073
     12 C10        -4.0179   -5.0679   -0.4527 C.ar      1 <0>         0.3963
     13 N3         -2.7246   -5.3028   -0.4228 N.ar      1 <0>        -0.5771
     14 C11        -1.8536   -4.3001   -0.3079 C.ar      1 <0>         0.3981
     15 N4         -0.4957   -4.2162   -0.2502 N.pl3     1 <0>        -0.4727
     16 H1          0.1148   -4.9689   -0.2896 H         1 <0>         0.4500
     17 N5         -0.1184   -2.8743   -0.1307 N.2       1 <0>        -0.2902
     18 N6         -4.2736   -1.5149   -0.1697 N.pl3     1 <0>        -0.8229
     19 F1          3.5027    2.0334    0.8775 F         1 <0>        -0.1391
     20 H2         -0.6745    1.7482   -0.7779 H         1 <0>         0.1364
     21 H3          1.4254    2.9723   -0.3922 H         1 <0>         0.1410
     22 H4          3.0217   -0.4039    1.6757 H         1 <0>         0.1399
     23 H5          0.9259   -1.6354    1.2910 H         1 <0>         0.1457
     24 H6         -2.0368   -0.2382   -0.0639 H         1 <0>         0.4156
     25 H7         -4.6940   -5.9048   -0.5471 H         1 <0>         0.2079
     26 H8         -3.6882   -0.7462   -0.0840 H         1 <0>         0.4033
     27 H9         -5.2354   -1.3915   -0.1958 H         1 <0>         0.4164
@<TRIPOS>BOND
     1    1    6 ar
     2    1    2 ar
     3    1   20 1
     4    2    3 ar
     5    2   21 1
     6    3    4 ar
     7    3   19 1
     8    4    5 ar
     9    4   22 1
    10    5    6 ar
    11    5   23 1
    12    6    7 1
    13    7    8 1
    14    7   24 1
    15    8   17 2
    16    8    9 1
    17    9   14 ar
    18    9   10 ar
    19   10   11 ar
    20   10   18 1
    21   11   12 ar
    22   12   13 ar
    23   12   25 1
    24   13   14 ar
    25   14   15 1
    26   15   16 1
    27   15   17 1
    28   18   26 1
    29   18   27 1
@<TRIPOS>MOLECULE
ZINC13647791
   43    46     0     0     0
SMALL
USER_CHARGES

@<TRIPOS>ATOM
      1 C1         -0.0166    1.3699    0.0096 C.ar      1 <0>        -0.0800
      2 C2          1.1572    2.1045    0.0023 C.ar      1 <0>        -0.1190
      3 C3          2.3694    1.4373   -0.0129 C.ar      1 <0>        -0.0394
      4 C4          2.3887    0.0627   -0.0205 C.ar      1 <0>        -0.1883
      5 C5          1.2179   -0.7095   -0.0134 C.ar      1 <0>         0.1191
      6 C6          0.0021   -0.0041    0.0020 C.ar      1 <0>        -0.1207
      7 N1          1.3955   -2.0811   -0.0225 N.pl3     1 <0>        -0.6290
      8 C7          2.6545   -2.6113   -0.0374 C.2       1 <0>         0.2414
      9 C8          3.0385   -3.9533   -0.0487 C.2       1 <0>        -0.1370
     10 C9          2.0433   -4.9829   -0.0452 C.1       1 <0>         0.2720
     11 N2          1.2537   -5.7996   -0.0424 N.1       1 <0>        -0.4249
     12 C10         4.4680   -4.3104   -0.0642 C.ar      1 <0>         0.3088
     13 C11         4.8666   -5.6555   -0.0815 C.ar      1 <0>        -0.2844
     14 C12         6.2058   -5.9409   -0.0954 C.ar      1 <0>         0.2007
     15 N3          7.0848   -4.9482   -0.0923 N.ar      1 <0>        -0.5794
     16 C13         6.6886   -3.6836   -0.0759 C.ar      1 <0>         0.5826
     17 N4          5.4049   -3.3593   -0.0676 N.ar      1 <0>        -0.5825
     18 N5          7.6395   -2.6778   -0.0728 N.pl3     1 <0>        -0.7005
     19 C14         9.0646   -3.0170   -0.0875 C.3       1 <0>         0.1450
     20 C15         9.8948   -1.7318   -0.0805 C.3       1 <0>        -0.0888
     21 C16        11.3608   -2.0808   -0.0957 C.ar      1 <0>        -0.1340
     22 C17        12.0518   -2.2615    1.0929 C.ar      1 <0>        -0.0689
     23 C18        13.3992   -2.5815    1.0307 C.ar      1 <0>        -0.1701
     24 C19        14.0048   -2.7089   -0.2053 C.ar      1 <0>         0.0971
     25 N6         13.3163   -2.5294   -1.3154 N.ar      1 <0>        -0.4833
     26 C20        12.0320   -2.2302   -1.2943 C.ar      1 <0>         0.1060
     27 S1          3.6842   -1.1528   -0.0394 S.3       1 <0>         0.1837
     28 H1         -0.9648    1.8866    0.0260 H         1 <0>         0.1374
     29 H2          1.1270    3.1841    0.0081 H         1 <0>         0.1413
     30 H3          3.2952    1.9934   -0.0191 H         1 <0>         0.1400
     31 H4         -0.9301   -0.5494    0.0080 H         1 <0>         0.1308
     32 H5          0.6237   -2.6686   -0.0180 H         1 <0>         0.4164
     33 H6          4.1333   -6.4484   -0.0833 H         1 <0>         0.1381
     34 H7          6.5434   -6.9667   -0.1085 H         1 <0>         0.1667
     35 H8          7.3622   -1.7483   -0.0608 H         1 <0>         0.4130
     36 H9          9.3060   -3.6103    0.7944 H         1 <0>         0.0692
     37 H10         9.2920   -3.5916   -0.9854 H         1 <0>         0.0705
     38 H11         9.6534   -1.1385   -0.9624 H         1 <0>         0.0847
     39 H12         9.6674   -1.1572    0.8174 H         1 <0>         0.0829
     40 H13        11.5523   -2.1551    2.0445 H         1 <0>         0.1348
     41 H14        13.9686   -2.7291    1.9364 H         1 <0>         0.1364
     42 H15        15.0542   -2.9580   -0.2624 H         1 <0>         0.1564
     43 H16        11.4998   -2.0959   -2.2244 H         1 <0>         0.1551
@<TRIPOS>BOND
     1    1    6 ar
     2    1    2 ar
     3    1   28 1
     4    2    3 ar
     5    2   29 1
     6    3    4 ar
     7    3   30 1
     8    4   27 1
     9    4    5 ar
    10    5    6 ar
    11    5    7 1
    12    6   31 1
    13    7    8 1
    14    7   32 1
    15    8    9 2
    16    8   27 1
    17    9   10 1
    18    9   12 1
    19   10   11 3
    20   12   17 ar
    21   12   13 ar
    22   13   14 ar
    23   13   33 1
    24   14   15 ar
    25   14   34 1
    26   15   16 ar
    27   16   17 ar
    28   16   18 1
    29   18   19 1
    30   18   35 1
    31   19   20 1
    32   19   36 1
    33   19   37 1
    34   20   21 1
    35   20   38 1
    36   20   39 1
    37   21   26 ar
    38   21   22 ar
    39   22   23 ar
    40   22   40 1
    41   23   24 ar
    42   23   41 1
    43   24   25 ar
    44   24   42 1
    45   25   26 ar
    46   26   43 1
@<TRIPOS>MOLECULE
ZINC08830553
   23    24     0     0     0
SMALL
USER_CHARGES

@<TRIPOS>ATOM
      1 C1         -0.0178    1.4608    0.0101 C.3       1 <0>         0.1046
      2 N1          0.0021   -0.0041    0.0020 N.pl3     1 <0>        -0.5941
      3 C2          0.0241   -0.7433    1.2666 C.3       1 <0>         0.0832
      4 C3          0.0000   -0.6873   -1.1963 C.2       1 <0>         0.5723
      5 N2          0.0119   -2.0467   -1.3242 N.pl3     1 <0>        -0.6100
      6 H1          0.0232   -2.6926   -0.6006 H         1 <0>         0.4284
      7 C4          0.0041   -2.3318   -2.6805 C.ar      1 <0>         0.0801
      8 C5         -0.0126   -1.0922   -3.3399 C.ar      1 <0>         0.1386
      9 N3         -0.0193   -0.1288   -2.3806 N.2       1 <0>        -0.5242
     10 C6         -0.0242   -1.0555   -4.7369 C.ar      1 <0>        -0.0212
     11 C7         -0.0190   -2.2337   -5.4529 C.ar      1 <0>        -0.0459
     12 C8         -0.0029   -3.4564   -4.7961 C.ar      1 <0>        -0.0542
     13 C9          0.0091   -3.5081   -3.4157 C.ar      1 <0>        -0.0340
     14 Br1         0.0322   -5.1789   -2.5303 Br        1 <0>        -0.0066
     15 Br2         0.0027   -5.0609   -5.7968 Br        1 <0>         0.0152
     16 Br3        -0.0346   -2.1836   -7.3432 Br        1 <0>         0.0151
     17 Br4        -0.0474    0.6046   -5.6421 Br        1 <0>         0.0102
     18 H2          1.0048    1.8381    0.0023 H         1 <0>         0.0599
     19 H3         -0.5450    1.8219   -0.8730 H         1 <0>         0.0859
     20 H4         -0.5280    1.8123    0.9069 H         1 <0>         0.0771
     21 H5          0.0224   -0.0395    2.0990 H         1 <0>         0.0963
     22 H6         -0.8567   -1.3823    1.3294 H         1 <0>         0.0616
     23 H7          0.9230   -1.3581    1.3125 H         1 <0>         0.0616
@<TRIPOS>BOND
     1    1    2 1
     2    1   18 1
     3    1   19 1
     4    1   20 1
     5    2    3 1
     6    2    4 1
     7    3   21 1
     8    3   22 1
     9    3   23 1
    10    4    9 2
    11    4    5 1
    12    5    6 1
    13    5    7 1
    14    7   13 ar
    15    7    8 ar
    16    8    9 1
    17    8   10 ar
    18   10   11 ar
    19   10   17 1
    20   11   12 ar
    21   11   16 1
    22   12   13 ar
    23   12   15 1
    24   13   14 1
@<TRIPOS>MOLECULE
ZINC28714095
   62    67     0     0     0
SMALL
USER_CHARGES
N-(4-hydroxycyclohexyl)-3-[4-(4-hydroxyphenyl)phenyl]-1,4-dihydroindeno[1,2-c]pyrazole-6-carboxamide
@<TRIPOS>ATOM
      1 C1          3.5844    5.3599    0.6882 C.ar      1 <0>        -0.1162
      2 C2          2.7790    4.2424    0.6905 C.ar      1 <0>        -0.0841
      3 C3          1.5622    4.2586    0.0100 C.ar      1 <0>        -0.0212
      4 C4          1.1626    5.4041   -0.6770 C.ar      1 <0>        -0.0865
      5 C5          1.9651    6.5238   -0.6747 C.ar      1 <0>        -0.1157
      6 C6          3.1825    6.5077    0.0055 C.ar      1 <0>        -0.0241
      7 C7          4.0496    7.7106    0.0025 C.ar      1 <0>        -0.0946
      8 C8          5.2644    7.6977    0.6864 C.ar      1 <0>        -0.0643
      9 C9          6.0710    8.8161    0.6773 C.ar      1 <0>        -0.1614
     10 C10         5.6695    9.9578   -0.0032 C.ar      1 <0>         0.1615
     11 C11         4.4576    9.9757   -0.6805 C.ar      1 <0>        -0.2135
     12 C12         3.6490    8.8587   -0.6796 C.ar      1 <0>        -0.0653
     13 O1          6.4640   11.0600   -0.0060 O.3       1 <0>        -0.5096
     14 C13         0.6953    3.0545    0.0118 C.2       1 <0>         0.1379
     15 C14        -0.7085    3.0512    0.0252 C.2       1 <0>        -0.2195
     16 C15        -1.1284    1.7549    0.0163 C.2       1 <0>         0.0808
     17 N1         -0.0111    0.9658    0.0074 N.pl3     1 <0>        -0.4626
     18 H1         -0.1114   -0.1296    0.0063 H         1 <0>         0.4717
     19 N2          1.1102    1.8043    0.0011 N.2       1 <0>        -0.2432
     20 C16        -2.6056    1.6992    0.0365 C.ar      1 <0>        -0.0084
     21 C17        -3.4888    0.6134    0.0396 C.ar      1 <0>        -0.1023
     22 C18        -4.8373    0.8246    0.0544 C.ar      1 <0>        -0.0849
     23 C19        -5.3474    2.1258    0.0666 C.ar      1 <0>        -0.1225
     24 C20        -4.4711    3.2158    0.0635 C.ar      1 <0>        -0.0369
     25 C21        -3.1147    2.9996    0.0486 C.ar      1 <0>        -0.0767
     26 C22        -1.9313    3.9361    0.0421 C.3       1 <0>        -0.0125
     27 C23        -6.8069    2.3490    0.0821 C.2       1 <0>         0.5615
     28 O2         -7.2486    3.4817    0.0922 O.2       1 <0>        -0.5345
     29 N3         -7.6495    1.2971    0.0850 N.am      1 <0>        -0.7348
     30 C24        -9.0976    1.5185    0.1004 C.3       1 <0>         0.1464
     31 C25        -9.5685    1.7125    1.5431 C.3       1 <0>        -0.1253
     32 C26       -11.0808    1.9438    1.5592 C.3       1 <0>        -0.1105
     33 C27       -11.7886    0.7317    0.9503 C.3       1 <0>         0.1144
     34 C28       -11.3177    0.5377   -0.4924 C.3       1 <0>        -0.1470
     35 C29        -9.8053    0.3064   -0.5085 C.3       1 <0>        -0.1233
     36 O3        -13.2011    0.9477    0.9653 O.3       1 <0>        -0.6016
     37 H2          4.5270    5.3474    1.2153 H         1 <0>         0.1290
     38 H3          3.0902    3.3536    1.2192 H         1 <0>         0.1283
     39 H4          0.2219    5.4151   -1.2075 H         1 <0>         0.1279
     40 H5          1.6538    7.4124   -1.2038 H         1 <0>         0.1294
     41 H6          5.5752    6.8114    1.2197 H         1 <0>         0.1327
     42 H7          7.0140    8.8054    1.2035 H         1 <0>         0.1310
     43 H8          4.1481   10.8652   -1.2090 H         1 <0>         0.1292
     44 H9          2.7063    8.8733   -1.2063 H         1 <0>         0.1287
     45 H10         6.1470   11.9651   -0.5448 H         1 <0>         0.4351
     46 H11        -3.1021   -0.3949    0.0307 H         1 <0>         0.1297
     47 H12        -5.5133   -0.0177    0.0564 H         1 <0>         0.1313
     48 H13        -4.8594    4.2236    0.0725 H         1 <0>         0.1443
     49 H14        -1.9155    4.5662    0.9436 H         1 <0>         0.1042
     50 H15        -1.9332    4.5761   -0.8525 H         1 <0>         0.1025
     51 H16        -7.2499    0.2723    0.0758 H         1 <0>         0.4168
     52 H17        -9.2940    2.4217   -0.4960 H         1 <0>         0.0915
     53 H18        -9.3287    0.8142    2.1310 H         1 <0>         0.0672
     54 H19        -9.0596    2.5839    1.9809 H         1 <0>         0.0759
     55 H20       -11.4194    2.0833    2.5965 H         1 <0>         0.0731
     56 H21       -11.3206    2.8421    0.9713 H         1 <0>         0.0734
     57 H22       -11.6171   -0.1737    1.5510 H         1 <0>         0.0508
     58 H23       -11.8266   -0.3337   -0.9301 H         1 <0>         0.0704
     59 H24       -11.5576    1.4359   -1.0803 H         1 <0>         0.0750
     60 H25        -9.4667    0.1670   -1.5457 H         1 <0>         0.0738
     61 H26        -9.5654   -0.5918    0.0794 H         1 <0>         0.0709
     62 H27       -13.8793    0.1795    0.5654 H         1 <0>         0.4066
@<TRIPOS>BOND
     1    1    6 ar
     2    1    2 ar
     3    1   37 1
     4    2    3 ar
     5    2   38 1
     6    3    4 ar
     7    3   14 1
     8    4    5 ar
     9    4   39 1
    10    5    6 ar
    11    5   40 1
    12    6    7 1
    13    7   12 ar
    14    7    8 ar
    15    8    9 ar
    16    8   41 1
    17    9   10 ar
    18    9   42 1
    19   10   11 ar
    20   10   13 1
    21   11   12 ar
    22   11   43 1
    23   12   44 1
    24   13   45 1
    25   14   19 2
    26   14   15 1
    27   15   26 1
    28   15   16 2
    29   16   17 1
    30   16   20 1
    31   17   18 1
    32   17   19 1
    33   20   25 ar
    34   20   21 ar
    35   21   22 ar
    36   21   46 1
    37   22   23 ar
    38   22   47 1
    39   23   24 ar
    40   23   27 1
    41   24   25 ar
    42   24   48 1
    43   25   26 1
    44   26   49 1
    45   26   50 1
    46   27   28 2
    47   27   29 am
    48   29   30 1
    49   29   51 1
    50   30   35 1
    51   30   31 1
    52   30   52 1
    53   31   32 1
    54   31   53 1
    55   31   54 1
    56   32   33 1
    57   32   55 1
    58   32   56 1
    59   33   34 1
    60   33   36 1
    61   33   57 1
    62   34   35 1
    63   34   58 1
    64   34   59 1
    65   35   60 1
    66   35   61 1
    67   36   62 1
@<TRIPOS>MOLECULE
ZINC43015507
   50    54     0     0     0
SMALL
USER_CHARGES

@<TRIPOS>ATOM
      1 C1          0.3224    1.5326    0.1000 C.ar      1 <0>        -0.1250
      2 C2          1.5374    2.1934    0.1213 C.ar      1 <0>        -0.1171
      3 C3          2.7163    1.4758    0.1098 C.ar      1 <0>        -0.1174
      4 C4          2.6811    0.0833    0.0772 C.ar      1 <0>        -0.0262
      5 C5          1.4544   -0.5772    0.0564 C.ar      1 <0>        -0.1130
      6 C6          0.2815    0.1504    0.0677 C.ar      1 <0>        -0.1129
      7 C7          3.9454   -0.6935    0.0643 C.ar      1 <0>        -0.1338
      8 C8          3.9182   -2.0872    0.0259 C.ar      1 <0>        -0.0097
      9 C9          5.1348   -2.7641    0.0149 C.ar      1 <0>        -0.1325
     10 C10         5.5175   -4.1849   -0.0218 C.2       1 <0>        -0.0987
     11 C11         6.8750   -4.2186   -0.0142 C.2       1 <0>         0.0636
     12 N1          7.3674   -2.9481    0.0238 N.pl3     1 <0>        -0.5756
     13 H1          8.3101   -2.7199    0.0356 H         1 <0>         0.4195
     14 C12         6.3382   -2.0352    0.0424 C.ar      1 <0>         0.2841
     15 N2          6.3098   -0.7086    0.0782 N.ar      1 <0>        -0.4977
     16 C13         5.1788   -0.0387    0.0846 C.ar      1 <0>         0.1480
     17 C14         4.6036   -5.3469   -0.0590 C.ar      1 <0>        -0.0466
     18 C15         3.5513   -5.4372    0.8564 C.ar      1 <0>        -0.1097
     19 C16         2.7067   -6.5090    0.8229 C.ar      1 <0>        -0.1067
     20 C17         2.8950   -7.5182   -0.1291 C.ar      1 <0>        -0.0948
     21 C18         3.9492   -7.4266   -1.0453 C.ar      1 <0>        -0.0602
     22 C19         4.7894   -6.3508   -1.0130 C.ar      1 <0>        -0.1016
     23 C20         4.1534   -8.5119   -2.0707 C.3       1 <0>        -0.0531
     24 C21         5.5560   -9.1338   -1.9099 C.3       1 <0>        -0.1126
     25 C22         6.0138   -9.4188   -3.3619 C.3       1 <0>        -0.1243
     26 C23         5.4671   -8.1956   -4.1390 C.3       1 <0>        -0.1220
     27 C24         4.0968   -7.9154   -3.4880 C.3       1 <0>        -0.1150
     28 C25         1.9854   -8.6747   -0.1662 C.2       1 <0>         0.5265
     29 O1          0.9434   -8.6133   -0.8045 O.co2     1 <0>        -0.6856
     30 O2          2.2712   -9.6975    0.4414 O.co2     1 <0>        -0.6853
     31 H2         -0.5978    2.0979    0.1132 H         1 <0>         0.1206
     32 H3          1.5636    3.2728    0.1466 H         1 <0>         0.1222
     33 H4          3.6645    1.9928    0.1258 H         1 <0>         0.1242
     34 H5          1.4213   -1.6563    0.0307 H         1 <0>         0.1270
     35 H6         -0.6698   -0.3605    0.0515 H         1 <0>         0.1247
     36 H7          2.9819   -2.6252    0.0056 H         1 <0>         0.1392
     37 H8          7.4743   -5.1169   -0.0346 H         1 <0>         0.1813
     38 H9          5.2039    1.0407    0.1099 H         1 <0>         0.1607
     39 H10         3.4066   -4.6587    1.5909 H         1 <0>         0.1115
     40 H11         1.8939   -6.5787    1.5306 H         1 <0>         0.1157
     41 H12         5.6002   -6.2776   -1.7226 H         1 <0>         0.1144
     42 H13         3.3884   -9.2802   -1.9581 H         1 <0>         0.0882
     43 H14         6.2330   -8.4285   -1.4279 H         1 <0>         0.0644
     44 H15         5.4992  -10.0605   -1.3389 H         1 <0>         0.0669
     45 H16         7.1013   -9.4606   -3.4228 H         1 <0>         0.0607
     46 H17         5.5693  -10.3423   -3.7328 H         1 <0>         0.0654
     47 H18         6.1297   -7.3388   -4.0170 H         1 <0>         0.0604
     48 H19         5.3454   -8.4377   -5.1948 H         1 <0>         0.0598
     49 H20         3.3050   -8.3948   -4.0635 H         1 <0>         0.0635
     50 H21         3.9218   -6.8409   -3.4342 H         1 <0>         0.0642
@<TRIPOS>BOND
     1    1    6 ar
     2    1    2 ar
     3    1   31 1
     4    2    3 ar
     5    2   32 1
     6    3    4 ar
     7    3   33 1
     8    4    5 ar
     9    4    7 1
    10    5    6 ar
    11    5   34 1
    12    6   35 1
    13    7   16 ar
    14    7    8 ar
    15    8    9 ar
    16    8   36 1
    17    9   14 ar
    18    9   10 1
    19   10   11 2
    20   10   17 1
    21   11   12 1
    22   11   37 1
    23   12   13 1
    24   12   14 1
    25   14   15 ar
    26   15   16 ar
    27   16   38 1
    28   17   22 ar
    29   17   18 ar
    30   18   19 ar
    31   18   39 1
    32   19   20 ar
    33   19   40 1
    34   20   21 ar
    35   20   28 1
    36   21   22 ar
    37   21   23 1
    38   22   41 1
    39   23   27 1
    40   23   24 1
    41   23   42 1
    42   24   25 1
    43   24   43 1
    44   24   44 1
    45   25   26 1
    46   25   45 1
    47   25   46 1
    48   26   27 1
    49   26   47 1
    50   26   48 1
    51   27   49 1
    52   27   50 1
    53   28   29 2
    54   28   30 1
@<TRIPOS>MOLECULE
ZINC43121559
   39    43     0     0     0
SMALL
USER_CHARGES

@<TRIPOS>ATOM
      1 C1         -0.0167    1.3790    0.0096 C.ar      1 <0>        -0.1243
      2 C2          1.1687    2.0919    0.0021 C.ar      1 <0>        -0.1169
      3 C3          2.3774    1.4258   -0.0129 C.ar      1 <0>        -0.1170
      4 C4          2.4022    0.0327   -0.0206 C.ar      1 <0>        -0.0273
      5 C5          1.2051   -0.6804   -0.0130 C.ar      1 <0>        -0.1128
      6 C6          0.0021   -0.0041    0.0020 C.ar      1 <0>        -0.1131
      7 C7          3.6987   -0.6889   -0.0373 C.ar      1 <0>        -0.1322
      8 C8          3.7315   -2.0829   -0.0508 C.ar      1 <0>        -0.0107
      9 C9          4.9762   -2.7068   -0.0662 C.ar      1 <0>        -0.1326
     10 C10         5.4192   -4.1100   -0.0829 C.2       1 <0>        -0.1046
     11 C11         6.7753   -4.0863   -0.0928 C.2       1 <0>         0.0677
     12 N1          7.2143   -2.7938   -0.0838 N.pl3     1 <0>        -0.5764
     13 H1          8.1464   -2.5253   -0.0882 H         1 <0>         0.4202
     14 C12         6.1472   -1.9261   -0.0675 C.ar      1 <0>         0.2847
     15 N2          6.0616   -0.6015   -0.0536 N.ar      1 <0>        -0.4974
     16 C13         4.9028    0.0189   -0.0455 C.ar      1 <0>         0.1487
     17 C14         4.5544   -5.3119   -0.0871 C.ar      1 <0>        -0.0400
     18 C15         3.5199   -5.4305    0.8426 C.ar      1 <0>        -0.1059
     19 C16         2.7161   -6.5478    0.8392 C.ar      1 <0>        -0.1029
     20 C17         2.9352   -7.5625   -0.0948 C.ar      1 <0>         0.0516
     21 C18         3.9697   -7.4434   -1.0250 C.ar      1 <0>        -0.1032
     22 C19         4.7700   -6.3235   -1.0245 C.ar      1 <0>        -0.1074
     23 C20         2.0720   -8.7633   -0.0984 C.2       1 <0>         0.0732
     24 N3          1.0480   -9.0133    0.7202 N.2       1 <0>        -0.3674
     25 N4          0.5593  -10.1597    0.3900 N.2       1 <0>        -0.1914
     26 N5          1.2304  -10.6392   -0.5979 N.2       1 <0>        -0.1915
     27 N6          2.1599   -9.8077   -0.9247 N.2       1 <0>        -0.3676
     28 H2         -0.9603    1.9042    0.0260 H         1 <0>         0.1209
     29 H3          1.1483    3.1717    0.0077 H         1 <0>         0.1225
     30 H4          3.3023    1.9834   -0.0191 H         1 <0>         0.1244
     31 H5          1.2186   -1.7603   -0.0193 H         1 <0>         0.1270
     32 H6         -0.9264   -0.5558    0.0079 H         1 <0>         0.1248
     33 H7          2.8192   -2.6609   -0.0491 H         1 <0>         0.1396
     34 H8          7.4118   -4.9587   -0.1056 H         1 <0>         0.1826
     35 H9          4.8812    1.0987   -0.0395 H         1 <0>         0.1611
     36 H10         3.3505   -4.6457    1.5649 H         1 <0>         0.1167
     37 H11         1.9162   -6.6399    1.5590 H         1 <0>         0.1291
     38 H12         4.1396   -8.2282   -1.7472 H         1 <0>         0.1293
     39 H13         5.5674   -6.2293   -1.7468 H         1 <0>         0.1186
@<TRIPOS>BOND
     1    1    6 ar
     2    1    2 ar
     3    1   28 1
     4    2    3 ar
     5    2   29 1
     6    3    4 ar
     7    3   30 1
     8    4    5 ar
     9    4    7 1
    10    5    6 ar
    11    5   31 1
    12    6   32 1
    13    7   16 ar
    14    7    8 ar
    15    8    9 ar
    16    8   33 1
    17    9   14 ar
    18    9   10 1
    19   10   11 2
    20   10   17 1
    21   11   12 1
    22   11   34 1
    23   12   13 1
    24   12   14 1
    25   14   15 ar
    26   15   16 ar
    27   16   35 1
    28   17   22 ar
    29   17   18 ar
    30   18   19 ar
    31   18   36 1
    32   19   20 ar
    33   19   37 1
    34   20   21 ar
    35   20   23 1
    36   21   22 ar
    37   21   38 1
    38   22   39 1
    39   23   27 2
    40   23   24 1
    41   24   25 1
    42   25   26 2
    43   26   27 1
