@<TRIPOS>MOLECULE
ZINC04428529
   53    56     0     0     0
SMALL
USER_CHARGES

@<TRIPOS>ATOM
      1 C1          0.4282    0.7651    1.2384 C.3       1 <0>        -0.2080
      2 C2          0.0050   -0.0027    0.0127 C.2       1 <0>         0.3647
      3 O1          0.7040   -0.0010   -0.9721 O.2       1 <0>        -0.4542
      4 C3         -1.2905   -0.7727    0.0158 C.3       1 <0>        -0.1325
      5 H1         -2.0415   -0.2446    0.6034 H         1 <0>         0.0972
      6 C4         -1.7935   -0.9827   -1.4341 C.3       1 <0>        -0.1186
      7 C5         -1.9305   -2.5169   -1.6323 C.3       1 <0>        -0.1151
      8 C6         -2.1068   -3.0336   -0.2000 C.3       1 <0>        -0.0796
      9 H2         -3.1156   -2.8264    0.1569 H         1 <0>         0.0777
     10 C7         -1.0708   -2.1742    0.5759 C.3       1 <0>        -0.0487
     11 C8         -1.3489   -2.3630    2.0549 C.3       1 <0>        -0.1047
     12 C9         -1.0643   -3.8367    2.3850 C.3       1 <0>        -0.1222
     13 C10        -1.9046   -4.7802    1.5293 C.3       1 <0>        -0.0680
     14 H3         -2.9551   -4.6575    1.7928 H         1 <0>         0.0704
     15 C11        -1.7585   -4.4942    0.0214 C.3       1 <0>        -0.0776
     16 H4         -0.7305   -4.6831   -0.2877 H         1 <0>         0.0863
     17 C12        -2.7266   -5.3822   -0.7660 C.3       1 <0>        -0.1118
     18 C13        -2.3186   -6.8466   -0.5915 C.3       1 <0>        -0.0977
     19 C14        -2.2642   -7.1658    0.8913 C.2       1 <0>        -0.0206
     20 C15        -2.8820   -8.2703    1.3099 C.2       1 <0>        -0.2434
     21 H5         -3.4070   -8.8958    0.6032 H         1 <0>         0.1337
     22 C16        -2.8495   -8.6362    2.7300 C.2       1 <0>         0.3882
     23 O2         -3.6756   -9.3796    3.2168 O.2       1 <0>        -0.4580
     24 C17        -1.7290   -8.0371    3.5574 C.3       1 <0>        -0.1668
     25 H6         -1.9153   -8.2141    4.6167 H         1 <0>         0.0925
     26 H7         -0.7768   -8.4825    3.2693 H         1 <0>         0.0997
     27 C18        -1.7074   -6.5351    3.2776 C.3       1 <0>        -0.1069
     28 C19        -1.4839   -6.2270    1.8163 C.3       1 <0>        -0.0241
     29 C20         0.0121   -6.3503    1.5204 C.3       1 <0>        -0.1492
     30 C21         0.3461   -2.6481    0.2465 C.3       1 <0>        -0.1572
     31 H8          1.3837    1.2542    1.0489 H         1 <0>         0.0809
     32 H9         -0.3247    1.5173    1.4738 H         1 <0>         0.0918
     33 H10         0.5316    0.0791    2.0791 H         1 <0>         0.0918
     34 H11        -2.7617   -0.5002   -1.5678 H         1 <0>         0.0675
     35 H12        -1.0717   -0.5769   -2.1430 H         1 <0>         0.0790
     36 H13        -2.8065   -2.7509   -2.2372 H         1 <0>         0.0676
     37 H14        -1.0279   -2.9297   -2.0829 H         1 <0>         0.0698
     38 H15        -0.6944   -1.7180    2.6411 H         1 <0>         0.0661
     39 H16        -2.3917   -2.1291    2.2695 H         1 <0>         0.0682
     40 H17        -0.0085   -4.0427    2.2091 H         1 <0>         0.0749
     41 H18        -1.2894   -4.0152    3.4365 H         1 <0>         0.0667
     42 H19        -3.7398   -5.2390   -0.3905 H         1 <0>         0.0659
     43 H20        -2.6874   -5.1165   -1.8224 H         1 <0>         0.0725
     44 H21        -3.0518   -7.4905   -1.0771 H         1 <0>         0.0771
     45 H22        -1.3365   -7.0077   -1.0361 H         1 <0>         0.0840
     46 H23        -2.6504   -6.0986    3.6068 H         1 <0>         0.0701
     47 H24        -0.8915   -6.0806    3.8396 H         1 <0>         0.0811
     48 H25         0.5667   -5.6628    2.1591 H         1 <0>         0.0702
     49 H26         0.3383   -7.3717    1.7166 H         1 <0>         0.0587
     50 H27         0.1972   -6.1043    0.4748 H         1 <0>         0.0638
     51 H28         1.0689   -2.0310    0.7800 H         1 <0>         0.0510
     52 H29         0.4614   -3.6883    0.5512 H         1 <0>         0.0714
     53 H30         0.5175   -2.5628   -0.8266 H         1 <0>         0.0644
@<TRIPOS>BOND
     1    1    2 1
     2    1   31 1
     3    1   32 1
     4    1   33 1
     5    2    3 2
     6    2    4 1
     7    4    5 1
     8    4   10 1
     9    4    6 1
    10    6    7 1
    11    6   34 1
    12    6   35 1
    13    7    8 1
    14    7   36 1
    15    7   37 1
    16    8    9 1
    17    8   15 1
    18    8   10 1
    19   10   11 1
    20   10   30 1
    21   11   12 1
    22   11   38 1
    23   11   39 1
    24   12   13 1
    25   12   40 1
    26   12   41 1
    27   13   14 1
    28   13   28 1
    29   13   15 1
    30   15   16 1
    31   15   17 1
    32   17   18 1
    33   17   42 1
    34   17   43 1
    35   18   19 1
    36   18   44 1
    37   18   45 1
    38   19   28 1
    39   19   20 2
    40   20   21 1
    41   20   22 1
    42   22   23 2
    43   22   24 1
    44   24   25 1
    45   24   26 1
    46   24   27 1
    47   27   28 1
    48   27   46 1
    49   27   47 1
    50   28   29 1
    51   29   48 1
    52   29   49 1
    53   29   50 1
    54   30   51 1
    55   30   52 1
    56   30   53 1
@<TRIPOS>MOLECULE
ZINC02516030
   52    54     0     0     0
SMALL
USER_CHARGES

@<TRIPOS>ATOM
      1 C1         -0.0167    1.3782    0.0096 C.ar      1 <0>        -0.0790
      2 C2          1.1703    2.0860    0.0021 C.ar      1 <0>        -0.1495
      3 C3          2.3786    1.4101   -0.0131 C.ar      1 <0>         0.1092
      4 C4          2.3962    0.0256   -0.0207 C.ar      1 <0>        -0.1488
      5 C5          1.2079   -0.6800   -0.0132 C.ar      1 <0>        -0.0820
      6 C6          0.0021   -0.0041    0.0020 C.ar      1 <0>        -0.1420
      7 C7         -1.2930   -0.7747    0.0103 C.3       1 <0>         0.1541
      8 H1         -2.0856   -0.1577   -0.4132 H         1 <0>         0.1128
      9 C8         -1.6532   -1.1512    1.4488 C.3       1 <0>        -0.1462
     10 C9         -3.0274   -1.8235    1.4711 C.3       1 <0>        -0.1467
     11 C10        -3.3877   -2.2001    2.9096 C.3       1 <0>        -0.0097
     12 N1         -4.7071   -2.8456    2.9311 N.4       1 <0>        -0.3828
     13 C11        -5.7288   -1.8814    2.5057 C.3       1 <0>        -0.0083
     14 C12        -7.0937   -2.5708    2.4483 C.3       1 <0>        -0.1330
     15 C13        -7.4457   -3.1104    3.8375 C.3       1 <0>         0.1747
     16 C14        -6.3361   -4.0578    4.3026 C.3       1 <0>        -0.1705
     17 C15        -4.9993   -3.3133    4.2913 C.3       1 <0>        -0.0020
     18 C16        -8.7522   -3.8585    3.7714 C.ar      1 <0>        -0.1263
     19 C17        -9.1187   -4.5073    2.6069 C.ar      1 <0>        -0.1006
     20 C18       -10.3168   -5.1936    2.5456 C.ar      1 <0>        -0.1039
     21 C19       -11.1494   -5.2313    3.6499 C.ar      1 <0>        -0.0247
     22 C20       -10.7821   -4.5818    4.8150 C.ar      1 <0>        -0.1015
     23 C21        -9.5811   -3.9006    4.8769 C.ar      1 <0>        -0.0934
     24 Cl1       -12.6547   -6.0927    3.5735 Cl        1 <0>        -0.0499
     25 O1         -7.5621   -2.0229    4.7572 O.3       1 <0>        -0.5476
     26 O2         -1.1454   -1.9625   -0.7703 O.3       1 <0>        -0.5520
     27 F1          3.5396    2.1009   -0.0209 F         1 <0>        -0.1327
     28 H2         -0.9592    1.9052    0.0260 H         1 <0>         0.1345
     29 H3          1.1554    3.1659    0.0077 H         1 <0>         0.1411
     30 H4          3.3381   -0.5027   -0.0329 H         1 <0>         0.1406
     31 H5          1.2213   -1.7599   -0.0195 H         1 <0>         0.1302
     32 H6         -0.9054   -1.8398    1.8423 H         1 <0>         0.0805
     33 H7         -1.6786   -0.2520    2.0642 H         1 <0>         0.0873
     34 H8         -3.7752   -1.1350    1.0776 H         1 <0>         0.0891
     35 H9         -3.0020   -2.7228    0.8556 H         1 <0>         0.0949
     36 H10        -2.6399   -2.8886    3.3031 H         1 <0>         0.1307
     37 H11        -3.4131   -1.3008    3.5251 H         1 <0>         0.1302
     38 H12        -5.7684   -1.0568    3.2175 H         1 <0>         0.1380
     39 H13        -5.4752   -1.4958    1.5182 H         1 <0>         0.1349
     40 H14        -7.8512   -1.8528    2.1340 H         1 <0>         0.1236
     41 H15        -7.0553   -3.3954    1.7365 H         1 <0>         0.1044
     42 H16        -6.5521   -4.4027    5.3138 H         1 <0>         0.1172
     43 H17        -6.2819   -4.9133    3.6294 H         1 <0>         0.1008
     44 H18        -4.2070   -3.9849    4.6221 H         1 <0>         0.1323
     45 H19        -5.0544   -2.4582    4.9651 H         1 <0>         0.1348
     46 H20        -8.4688   -4.4775    1.7449 H         1 <0>         0.1334
     47 H21       -10.6032   -5.7001    1.6358 H         1 <0>         0.1408
     48 H22       -11.4318   -4.6106    5.6773 H         1 <0>         0.1414
     49 H23        -9.2920   -3.3975    5.7879 H         1 <0>         0.1323
     50 H24        -7.7841   -2.2924    5.6589 H         1 <0>         0.3908
     51 H25        -0.4557   -2.5601   -0.4506 H         1 <0>         0.3775
     52 H26        -4.7059   -3.6321    2.2990 H         1 <0>         0.4210
@<TRIPOS>BOND
     1    1    6 ar
     2    1    2 ar
     3    1   28 1
     4    2    3 ar
     5    2   29 1
     6    3    4 ar
     7    3   27 1
     8    4    5 ar
     9    4   30 1
    10    5    6 ar
    11    5   31 1
    12    6    7 1
    13    7    8 1
    14    7    9 1
    15    7   26 1
    16    9   10 1
    17    9   32 1
    18    9   33 1
    19   10   11 1
    20   10   34 1
    21   10   35 1
    22   11   12 1
    23   11   36 1
    24   11   37 1
    25   12   17 1
    26   12   13 1
    27   12   52 1
    28   13   14 1
    29   13   38 1
    30   13   39 1
    31   14   15 1
    32   14   40 1
    33   14   41 1
    34   15   16 1
    35   15   18 1
    36   15   25 1
    37   16   17 1
    38   16   42 1
    39   16   43 1
    40   17   44 1
    41   17   45 1
    42   18   23 ar
    43   18   19 ar
    44   19   20 ar
    45   19   46 1
    46   20   21 ar
    47   20   47 1
    48   21   22 ar
    49   21   24 1
    50   22   23 ar
    51   22   48 1
    52   23   49 1
    53   25   50 1
    54   26   51 1
@<TRIPOS>MOLECULE
ZINC04257980
   52    54     0     0     0
SMALL
USER_CHARGES

@<TRIPOS>ATOM
      1 C1         -0.0167    1.3782    0.0096 C.ar      1 <0>        -0.0781
      2 C2          1.1703    2.0860    0.0021 C.ar      1 <0>        -0.1497
      3 C3          2.3786    1.4101   -0.0131 C.ar      1 <0>         0.1095
      4 C4          2.3962    0.0256   -0.0207 C.ar      1 <0>        -0.1491
      5 C5          1.2079   -0.6800   -0.0132 C.ar      1 <0>        -0.0822
      6 C6          0.0021   -0.0041    0.0020 C.ar      1 <0>        -0.1420
      7 C7         -1.2930   -0.7747    0.0103 C.3       1 <0>         0.1541
      8 H1         -2.0956   -0.1325    0.3729 H         1 <0>         0.1125
      9 C8         -1.6168   -1.2431   -1.4098 C.3       1 <0>        -0.1464
     10 C9         -2.9905   -1.9166   -1.4239 C.3       1 <0>        -0.1470
     11 C10        -3.3143   -2.3850   -2.8440 C.3       1 <0>        -0.0097
     12 N1         -4.6332   -3.0316   -2.8576 N.4       1 <0>        -0.3828
     13 C11        -4.5881   -4.2491   -2.0389 C.3       1 <0>        -0.0084
     14 C12        -5.9797   -4.8829   -1.9834 C.3       1 <0>        -0.1328
     15 C13        -6.4303   -5.2372   -3.4035 C.3       1 <0>         0.1746
     16 C14        -6.4022   -3.9732   -4.2677 C.3       1 <0>        -0.1705
     17 C15        -4.9949   -3.3731   -4.2385 C.3       1 <0>        -0.0021
     18 C16        -7.8317   -5.7900   -3.3644 C.ar      1 <0>        -0.1262
     19 C17        -8.7143   -5.3669   -2.3882 C.ar      1 <0>        -0.1006
     20 C18        -9.9997   -5.8735   -2.3518 C.ar      1 <0>        -0.1039
     21 C19       -10.4031   -6.8042   -3.2927 C.ar      1 <0>        -0.0247
     22 C20        -9.5193   -7.2272   -4.2695 C.ar      1 <0>        -0.1015
     23 C21        -8.2359   -6.7157   -4.3082 C.ar      1 <0>        -0.0934
     24 Cl1       -12.0173   -7.4413   -3.2473 Cl        1 <0>        -0.0499
     25 O1         -5.5451   -6.2135   -3.9560 O.3       1 <0>        -0.5475
     26 O2         -1.1663   -1.9098    0.8690 O.3       1 <0>        -0.5520
     27 F1          3.5396    2.1009   -0.0209 F         1 <0>        -0.1327
     28 H2         -0.9592    1.9052    0.0260 H         1 <0>         0.1347
     29 H3          1.1554    3.1659    0.0077 H         1 <0>         0.1411
     30 H4          3.3381   -0.5027   -0.0329 H         1 <0>         0.1406
     31 H5          1.2213   -1.7599   -0.0195 H         1 <0>         0.1298
     32 H6         -1.6258   -0.3852   -2.0822 H         1 <0>         0.0873
     33 H7         -0.8598   -1.9549   -1.7391 H         1 <0>         0.0804
     34 H8         -2.9815   -2.7744   -0.7516 H         1 <0>         0.0957
     35 H9         -3.7475   -1.2048   -1.0947 H         1 <0>         0.0886
     36 H10        -3.3233   -1.5271   -3.5164 H         1 <0>         0.1308
     37 H11        -2.5573   -3.0968   -3.1733 H         1 <0>         0.1301
     38 H12        -3.8846   -4.9561   -2.4785 H         1 <0>         0.1378
     39 H13        -4.2642   -3.9957   -1.0294 H         1 <0>         0.1360
     40 H14        -5.9437   -5.7876   -1.3766 H         1 <0>         0.1236
     41 H15        -6.6840   -4.1767   -1.5437 H         1 <0>         0.1041
     42 H16        -6.6682   -4.2278   -5.2936 H         1 <0>         0.1172
     43 H17        -7.1153   -3.2482   -3.8753 H         1 <0>         0.1007
     44 H18        -4.9714   -2.4731   -4.8530 H         1 <0>         0.1323
     45 H19        -4.2827   -4.0988   -4.6313 H         1 <0>         0.1348
     46 H20        -8.3992   -4.6406   -1.6536 H         1 <0>         0.1333
     47 H21       -10.6891   -5.5431   -1.5889 H         1 <0>         0.1408
     48 H22        -9.8335   -7.9539   -5.0040 H         1 <0>         0.1414
     49 H23        -7.5474   -7.0422   -5.0736 H         1 <0>         0.1323
     50 H24        -5.7714   -6.4850   -4.8561 H         1 <0>         0.3907
     51 H25        -0.4692   -2.5262    0.6060 H         1 <0>         0.3775
     52 H26        -5.3210   -2.3985   -2.4776 H         1 <0>         0.4206
@<TRIPOS>BOND
     1    1    6 ar
     2    1    2 ar
     3    1   28 1
     4    2    3 ar
     5    2   29 1
     6    3    4 ar
     7    3   27 1
     8    4    5 ar
     9    4   30 1
    10    5    6 ar
    11    5   31 1
    12    6    7 1
    13    7    8 1
    14    7    9 1
    15    7   26 1
    16    9   10 1
    17    9   32 1
    18    9   33 1
    19   10   11 1
    20   10   34 1
    21   10   35 1
    22   11   12 1
    23   11   36 1
    24   11   37 1
    25   12   17 1
    26   12   13 1
    27   12   52 1
    28   13   14 1
    29   13   38 1
    30   13   39 1
    31   14   15 1
    32   14   40 1
    33   14   41 1
    34   15   16 1
    35   15   18 1
    36   15   25 1
    37   16   17 1
    38   16   42 1
    39   16   43 1
    40   17   44 1
    41   17   45 1
    42   18   23 ar
    43   18   19 ar
    44   19   20 ar
    45   19   46 1
    46   20   21 ar
    47   20   47 1
    48   21   22 ar
    49   21   24 1
    50   22   23 ar
    51   22   48 1
    52   23   49 1
    53   25   50 1
    54   26   51 1
@<TRIPOS>MOLECULE
ZINC03616630
   52    54     0     0     0
SMALL
USER_CHARGES

@<TRIPOS>ATOM
      1 C1         -0.0187    1.5258    0.0104 C.3       1 <0>        -0.1979
      2 C2          0.0021   -0.0041    0.0020 C.3       1 <0>        -0.0083
      3 H1         -1.0205   -0.3814    0.0098 H         1 <0>         0.1467
      4 C3          0.7421   -0.5109    1.2415 C.3       1 <0>         0.1398
      5 H2          0.8346   -1.5958    1.1912 H         1 <0>         0.1306
      6 C4         -0.0298   -0.1295    2.4784 C.ar      1 <0>        -0.1506
      7 C5          0.0648    1.1546    2.9823 C.ar      1 <0>        -0.0917
      8 C6         -0.6414    1.5067    4.1162 C.ar      1 <0>        -0.1399
      9 C7         -1.4464    0.5707    4.7491 C.ar      1 <0>         0.1318
     10 C8         -1.5399   -0.7170    4.2412 C.ar      1 <0>        -0.1399
     11 C9         -0.8358   -1.0625    3.1041 C.ar      1 <0>        -0.0825
     12 O1         -2.1418    0.9144    5.8650 O.3       1 <0>        -0.4954
     13 O2          2.0438    0.0763    1.2925 O.3       1 <0>        -0.5446
     14 N1          0.6897   -0.4778   -1.2066 N.4       1 <0>        -0.3762
     15 C10        -0.0162    0.0165   -2.3948 C.3       1 <0>        -0.0111
     16 C11         0.7414   -0.4060   -3.6554 C.3       1 <0>        -0.1418
     17 C12         0.8228   -1.9344   -3.7071 C.3       1 <0>        -0.0939
     18 C13         1.4942   -2.4436   -2.4284 C.3       1 <0>        -0.1436
     19 C14         0.7088   -1.9455   -1.2133 C.3       1 <0>        -0.0127
     20 C15         1.6472   -2.3620   -4.9230 C.3       1 <0>        -0.0744
     21 C16         1.6242   -3.8640   -5.0426 C.ar      1 <0>        -0.0948
     22 C17         2.5880   -4.6230   -4.4053 C.ar      1 <0>        -0.1212
     23 C18         2.5668   -6.0008   -4.5150 C.ar      1 <0>        -0.1159
     24 C19         1.5817   -6.6197   -5.2615 C.ar      1 <0>        -0.1163
     25 C20         0.6174   -5.8609   -5.8979 C.ar      1 <0>        -0.1139
     26 C21         0.6360   -4.4833   -5.7848 C.ar      1 <0>        -0.1163
     27 H3          1.0039    1.9031    0.0027 H         1 <0>         0.0834
     28 H4         -0.5459    1.8868   -0.8726 H         1 <0>         0.0917
     29 H5         -0.5289    1.8773    0.9072 H         1 <0>         0.1135
     30 H6          0.6915    1.8829    2.4892 H         1 <0>         0.1279
     31 H7         -0.5667    2.5096    4.5098 H         1 <0>         0.1384
     32 H8         -2.1659   -1.4474    4.7322 H         1 <0>         0.1387
     33 H9         -0.9117   -2.0635    2.7058 H         1 <0>         0.1316
     34 H10        -3.0262    1.2619    5.6858 H         1 <0>         0.4006
     35 H11         2.0381    1.0422    1.3386 H         1 <0>         0.3862
     36 H12        -1.0226   -0.4013   -2.4191 H         1 <0>         0.1283
     37 H13        -0.0762    1.1042   -2.3550 H         1 <0>         0.1325
     38 H14         0.2147   -0.0396   -4.5366 H         1 <0>         0.1136
     39 H15         1.7479    0.0115   -3.6323 H         1 <0>         0.0897
     40 H16        -0.1818   -2.3506   -3.7819 H         1 <0>         0.0907
     41 H17         1.5058   -3.5335   -2.4326 H         1 <0>         0.1159
     42 H18         2.5165   -2.0683   -2.3798 H         1 <0>         0.0897
     43 H19         1.1841   -2.3064   -0.3012 H         1 <0>         0.1315
     44 H20        -0.3131   -2.3215   -1.2627 H         1 <0>         0.1284
     45 H21         1.2224   -1.9192   -5.8239 H         1 <0>         0.0830
     46 H22         2.6760   -2.0229   -4.8019 H         1 <0>         0.0787
     47 H23         3.3577   -4.1394   -3.8221 H         1 <0>         0.1199
     48 H24         3.3202   -6.5937   -4.0177 H         1 <0>         0.1246
     49 H25         1.5656   -7.6962   -5.3477 H         1 <0>         0.1252
     50 H26        -0.1521   -6.3444   -6.4814 H         1 <0>         0.1251
     51 H27        -0.1196   -3.8906   -6.2790 H         1 <0>         0.1213
     52 H28         1.6368   -0.1301   -1.2116 H         1 <0>         0.4242
@<TRIPOS>BOND
     1    1    2 1
     2    1   27 1
     3    1   28 1
     4    1   29 1
     5    2    3 1
     6    2    4 1
     7    2   14 1
     8    4    5 1
     9    4    6 1
    10    4   13 1
    11    6   11 ar
    12    6    7 ar
    13    7    8 ar
    14    7   30 1
    15    8    9 ar
    16    8   31 1
    17    9   10 ar
    18    9   12 1
    19   10   11 ar
    20   10   32 1
    21   11   33 1
    22   12   34 1
    23   13   35 1
    24   14   19 1
    25   14   15 1
    26   14   52 1
    27   15   16 1
    28   15   36 1
    29   15   37 1
    30   16   17 1
    31   16   38 1
    32   16   39 1
    33   17   18 1
    34   17   20 1
    35   17   40 1
    36   18   19 1
    37   18   41 1
    38   18   42 1
    39   19   43 1
    40   19   44 1
    41   20   21 1
    42   20   45 1
    43   20   46 1
    44   21   26 ar
    45   21   22 ar
    46   22   23 ar
    47   22   47 1
    48   23   24 ar
    49   23   48 1
    50   24   25 ar
    51   24   49 1
    52   25   26 ar
    53   25   50 1
    54   26   51 1
@<TRIPOS>MOLECULE
ZINC01666798
   32    32     0     0     0
SMALL
USER_CHARGES
N-[2-(4-nitrophenyl)ethyl]propan-1-amine
@<TRIPOS>ATOM
      1 C1          1.2492   -6.7487   -4.2439 C.3       1 <0>        -0.1579
      2 C2          1.2560   -6.2072   -2.8129 C.3       1 <0>        -0.1518
      3 C3          1.2348   -4.6777   -2.8463 C.3       1 <0>        -0.0068
      4 C4          1.2214   -2.6889   -1.4653 C.3       1 <0>        -0.0031
      5 C5          1.2289   -2.1857   -0.0205 C.3       1 <0>        -0.1097
      6 C6          1.2084   -0.6789   -0.0132 C.ar      1 <0>        -0.0584
      7 C7          0.0021   -0.0041    0.0020 C.ar      1 <0>        -0.1076
      8 C8         -0.0167    1.3781    0.0096 C.ar      1 <0>        -0.0496
      9 C9          1.1709    2.0855    0.0021 C.ar      1 <0>        -0.0293
     10 C10         2.3773    1.4107   -0.0145 C.ar      1 <0>        -0.0496
     11 C11         2.3960    0.0285   -0.0212 C.ar      1 <0>        -0.1076
     12 N1          1.1509    3.5656    0.0098 N.pl3     1 <0>         0.0168
     13 O1          0.0879    4.1601    0.0228 O.2       1 <0>        -0.1438
     14 O2          2.1973    4.1889    0.0031 O.3       1 <0>        -0.1437
     15 H1          2.1291   -6.3847   -4.7743 H         1 <0>         0.0675
     16 H2          1.2643   -7.8383   -4.2200 H         1 <0>         0.0786
     17 H3          0.3494   -6.4089   -4.7567 H         1 <0>         0.0675
     18 H4          2.1558   -6.5470   -2.3001 H         1 <0>         0.0868
     19 H5          0.3761   -6.5712   -2.2825 H         1 <0>         0.0868
     20 H6          0.3350   -4.3379   -3.3591 H         1 <0>         0.1315
     21 H7          2.1147   -4.3136   -3.3768 H         1 <0>         0.1315
     22 H8          0.3215   -2.3353   -1.9686 H         1 <0>         0.1349
     23 H9          2.1012   -2.3111   -1.9862 H         1 <0>         0.1349
     24 H10         2.1288   -2.5393    0.4828 H         1 <0>         0.1056
     25 H11         0.3491   -2.5635    0.5004 H         1 <0>         0.1056
     26 H12        -0.9258   -0.5567    0.0083 H         1 <0>         0.1503
     27 H13        -0.9592    1.9054    0.0170 H         1 <0>         0.1614
     28 H14         3.3051    1.9634   -0.0205 H         1 <0>         0.1614
     29 H15         3.3385   -0.4987   -0.0324 H         1 <0>         0.1503
     30 N2          1.2416   -4.1638   -1.4636 N.4       1 <0>        -0.5199
     31 H16         2.0893   -4.4904   -0.9851 H         1 <0>         0.4338
     32 H17         0.4128   -4.5133   -0.9683 H         1 <0>         0.4338
@<TRIPOS>BOND
     1    1    2 1
     2    1   15 1
     3    1   16 1
     4    1   17 1
     5    2    3 1
     6    2   18 1
     7    2   19 1
     8    3   20 1
     9    3   21 1
    10    3   30 1
    11    4    5 1
    12    4   22 1
    13    4   23 1
    14    4   30 1
    15    5    6 1
    16    5   24 1
    17    5   25 1
    18    6   11 ar
    19    6    7 ar
    20    7    8 ar
    21    7   26 1
    22    8    9 ar
    23    8   27 1
    24    9   10 ar
    25    9   12 1
    26   10   11 ar
    27   10   28 1
    28   11   29 1
    29   12   13 2
    30   12   14 1
    31   30   31 1
    32   30   32 1
@<TRIPOS>MOLECULE
ZINC01640539
   54    58     0     0     0
SMALL
USER_CHARGES
8-(benzothiophen-3-ylmethyl)-3-methyl-1-phenyl-1,3,8-triazaspiro[4.5]decan-4-one
@<TRIPOS>ATOM
      1 C1          4.8033    5.2887    2.4855 C.3       1 <0>         0.0915
      2 N1          3.7169    5.0562    1.5306 N.am      1 <0>        -0.6138
      3 C2          3.0521    3.7669    1.3018 C.3       1 <0>         0.2399
      4 N2          2.3532    3.8878    0.0009 N.pl3     1 <0>        -0.4405
      5 C3          2.1010    5.3397   -0.1092 C.3       1 <0>         0.0528
      6 C4          3.1737    5.9941    0.7261 C.2       1 <0>         0.5255
      7 O1          3.4932    7.1632    0.6823 O.2       1 <0>        -0.5127
      8 C5          0.7176    5.6756    0.4412 C.3       1 <0>        -0.1630
      9 C6          0.4583    7.1759    0.2779 C.3       1 <0>        -0.0165
     10 C7          1.9072    7.2804   -1.6636 C.3       1 <0>        -0.0147
     11 C8          2.2145    5.7835   -1.5651 C.3       1 <0>        -0.1193
     12 C9          0.1704    8.9387   -1.3563 C.3       1 <0>         0.0630
     13 C10        -1.2927    9.1085   -1.0374 C.2       1 <0>        -0.1831
     14 C11        -2.2006    9.1464   -2.0232 C.2       1 <0>        -0.1094
     15 S1         -3.7460    9.3526   -1.1590 S.3       1 <0>         0.1055
     16 C12        -3.1283    9.3920    0.5037 C.ar      1 <0>        -0.1170
     17 C13        -1.7338    9.2391    0.3435 C.ar      1 <0>        -0.0960
     18 C14        -0.9570    9.2329    1.5259 C.ar      1 <0>        -0.1041
     19 C15        -1.5450    9.3689    2.7444 C.ar      1 <0>        -0.1040
     20 C16        -2.9190    9.5175    2.8748 C.ar      1 <0>        -0.0828
     21 C17        -3.7124    9.5286    1.7445 C.ar      1 <0>        -0.0649
     22 C18         1.1546    3.1707    0.0081 C.ar      1 <0>         0.0817
     23 C19         0.2688    3.2849   -1.0559 C.ar      1 <0>        -0.1416
     24 C20        -0.9152    2.5740   -1.0458 C.ar      1 <0>        -0.0944
     25 C21        -1.2220    1.7538    0.0244 C.ar      1 <0>        -0.1243
     26 C22        -0.3398    1.6335    1.0825 C.ar      1 <0>        -0.0844
     27 C23         0.8459    2.3414    1.0789 C.ar      1 <0>        -0.1597
     28 H1          5.1047    6.3354    2.4452 H         1 <0>         0.0920
     29 H2          4.4604    5.0479    3.4917 H         1 <0>         0.0744
     30 H3          5.6532    4.6558    2.2301 H         1 <0>         0.0762
     31 H4          2.3328    3.5699    2.0968 H         1 <0>         0.0836
     32 H5          3.7910    2.9668    1.2574 H         1 <0>         0.1155
     33 H6         -0.0384    5.1139   -0.1074 H         1 <0>         0.1186
     34 H7          0.6724    5.4115    1.4977 H         1 <0>         0.1123
     35 H8          1.1978    7.7368    0.8494 H         1 <0>         0.1364
     36 H9         -0.5405    7.4140    0.6437 H         1 <0>         0.1455
     37 H10         2.6367    7.8404   -1.0785 H         1 <0>         0.1534
     38 H11         1.9595    7.5943   -2.7061 H         1 <0>         0.1369
     39 H12         3.2261    5.5953   -1.9250 H         1 <0>         0.1239
     40 H13         1.5021    5.2251   -2.1723 H         1 <0>         0.1027
     41 H14         0.7612    9.5835   -0.7058 H         1 <0>         0.1381
     42 H15         0.3494    9.2100   -2.3967 H         1 <0>         0.1399
     43 H16        -2.0352    9.0685   -3.0877 H         1 <0>         0.2021
     44 H17         0.1150    9.1192    1.4599 H         1 <0>         0.1246
     45 H18        -0.9287    9.3608    3.6313 H         1 <0>         0.1356
     46 H19        -3.3643    9.6240    3.8530 H         1 <0>         0.1443
     47 H20        -4.7827    9.6431    1.8323 H         1 <0>         0.1411
     48 H21         0.5059    3.9285   -1.8901 H         1 <0>         0.1255
     49 H22        -1.6044    2.6623   -1.8727 H         1 <0>         0.1317
     50 H23        -2.1508    1.2027    0.0320 H         1 <0>         0.1307
     51 H24        -0.5806    0.9888    1.9149 H         1 <0>         0.1324
     52 H25         1.5323    2.2507    1.9078 H         1 <0>         0.1343
     53 N3          0.5387    7.5218   -1.1576 N.4       1 <0>        -0.3876
     54 H26        -0.1183    6.9303   -1.6797 H         1 <0>         0.4222
@<TRIPOS>BOND
     1    1    2 1
     2    1   28 1
     3    1   29 1
     4    1   30 1
     5    2    6 am
     6    2    3 1
     7    3    4 1
     8    3   31 1
     9    3   32 1
    10    4    5 1
    11    4   22 1
    12    5   11 1
    13    5    6 1
    14    5    8 1
    15    6    7 2
    16    8    9 1
    17    8   33 1
    18    8   34 1
    19    9   35 1
    20    9   36 1
    21    9   53 1
    22   10   11 1
    23   10   37 1
    24   10   38 1
    25   10   53 1
    26   11   39 1
    27   11   40 1
    28   12   13 1
    29   12   41 1
    30   12   42 1
    31   12   53 1
    32   13   17 1
    33   13   14 2
    34   14   15 1
    35   14   43 1
    36   15   16 1
    37   16   21 ar
    38   16   17 ar
    39   17   18 ar
    40   18   19 ar
    41   18   44 1
    42   19   20 ar
    43   19   45 1
    44   20   21 ar
    45   20   46 1
    46   21   47 1
    47   22   27 ar
    48   22   23 ar
    49   23   24 ar
    50   23   48 1
    51   24   25 ar
    52   24   49 1
    53   25   26 ar
    54   25   50 1
    55   26   27 ar
    56   26   51 1
    57   27   52 1
    58   53   54 1
@<TRIPOS>MOLECULE
ZINC23282651
   46    49     0     0     0
SMALL
USER_CHARGES
4-(4-bromophenyl)-1-(1H-indol-3-ylmethyl)piperidin-4-ol
@<TRIPOS>ATOM
      1 C1         -3.6682    0.3380    5.1309 C.ar      1 <0>        -0.1217
      2 C2         -3.8390    1.2807    6.1358 C.ar      1 <0>        -0.0924
      3 C3         -2.9642    2.3370    6.2643 C.ar      1 <0>        -0.1143
      4 C4         -1.8980    2.4628    5.3794 C.ar      1 <0>         0.0875
      5 C5         -1.7294    1.5050    4.3630 C.ar      1 <0>        -0.0993
      6 C6         -2.6283    0.4425    4.2509 C.ar      1 <0>        -0.0989
      7 C7         -0.5382    1.9140    3.6150 C.2       1 <0>        -0.2670
      8 C8         -0.0759    3.0331    4.1946 C.2       1 <0>         0.1342
      9 N1         -0.8789    3.3791    5.2472 N.pl3     1 <0>        -0.5926
     10 H1         -0.8113    4.2304    5.9405 H         1 <0>         0.4586
     11 C9          0.0589    1.2086    2.4247 C.3       1 <0>         0.0881
     12 N2         -0.6996    1.5592    1.2165 N.4       1 <0>        -0.3943
     13 C10        -0.0127    1.0858    0.0080 C.3       1 <0>        -0.0016
     14 C11        -0.7525    1.5926   -1.2322 C.3       1 <0>        -0.1336
     15 C12        -2.1941    1.0772   -1.2067 C.3       1 <0>         0.1848
     16 C13        -2.8718    1.5436    0.0848 C.3       1 <0>        -0.1679
     17 C14        -2.0706    1.0383    1.2868 C.3       1 <0>        -0.0076
     18 C15        -2.9443    1.6207   -2.3953 C.ar      1 <0>        -0.1101
     19 C16        -2.6041    2.8523   -2.9229 C.ar      1 <0>        -0.1100
     20 C17        -3.2887    3.3491   -4.0161 C.ar      1 <0>        -0.0848
     21 C18        -4.3214    2.6183   -4.5755 C.ar      1 <0>        -0.0834
     22 C19        -4.6649    1.3884   -4.0440 C.ar      1 <0>        -0.0828
     23 C20        -3.9763    0.8901   -2.9541 C.ar      1 <0>        -0.0997
     24 Br1        -5.2628    3.3004   -6.0670 Br        1 <0>        -0.0321
     25 O1         -2.1916   -0.3510   -1.2558 O.3       1 <0>        -0.5773
     26 H2         -4.3632   -0.4840    5.0438 H         1 <0>         0.1302
     27 H3         -4.6662    1.1850    6.8235 H         1 <0>         0.1342
     28 H4         -3.1058    3.0653    7.0491 H         1 <0>         0.1288
     29 H5         -2.5019   -0.2944    3.4715 H         1 <0>         0.1202
     30 H6          0.7989    3.5805    3.8760 H         1 <0>         0.1793
     31 H7          1.1071    1.5189    2.3025 H         1 <0>         0.1335
     32 H8          0.0145    0.1209    2.5828 H         1 <0>         0.1287
     33 H9          1.0193    1.4664   -0.0000 H         1 <0>         0.1318
     34 H10         0.0021   -0.0141    0.0017 H         1 <0>         0.1346
     35 H11        -0.7545    2.6926   -1.2340 H         1 <0>         0.1030
     36 H12        -0.2459    1.2254   -2.1369 H         1 <0>         0.1210
     37 H13        -2.9093    2.6428    0.1029 H         1 <0>         0.0957
     38 H14        -3.8946    1.1410    0.1283 H         1 <0>         0.1129
     39 H15        -2.0461   -0.0614    1.2745 H         1 <0>         0.1283
     40 H16        -2.5470    1.3840    2.2160 H         1 <0>         0.1398
     41 H17        -1.8005    3.4246   -2.4835 H         1 <0>         0.1321
     42 H18        -3.0200    4.3093   -4.4310 H         1 <0>         0.1386
     43 H19        -5.4709    0.8174   -4.4807 H         1 <0>         0.1394
     44 H20        -4.2442   -0.0704   -2.5392 H         1 <0>         0.1316
     45 H21        -3.1428   -0.9033   -1.2463 H         1 <0>         0.4209
     46 H22        -0.7603    2.6560    1.1594 H         1 <0>         0.4336
@<TRIPOS>BOND
     1    1    6 ar
     2    1    2 ar
     3    1   26 1
     4    2    3 ar
     5    2   27 1
     6    3    4 ar
     7    3   28 1
     8    4    9 1
     9    4    5 ar
    10    5    6 ar
    11    5    7 1
    12    6   29 1
    13    7    8 2
    14    7   11 1
    15    8    9 1
    16    8   30 1
    17    9   10 1
    18   11   12 1
    19   11   31 1
    20   11   32 1
    21   12   17 1
    22   12   13 1
    23   12   46 1
    24   13   14 1
    25   13   33 1
    26   13   34 1
    27   14   15 1
    28   14   35 1
    29   14   36 1
    30   15   16 1
    31   15   18 1
    32   15   25 1
    33   16   17 1
    34   16   37 1
    35   16   38 1
    36   17   39 1
    37   17   40 1
    38   18   23 ar
    39   18   19 ar
    40   19   20 ar
    41   19   41 1
    42   20   21 ar
    43   20   42 1
    44   21   22 ar
    45   21   24 1
    46   22   23 ar
    47   22   43 1
    48   23   44 1
    49   25   45 1
@<TRIPOS>MOLECULE
ZINC28635561
   58    61     0     0     0
SMALL
USER_CHARGES
methyl (1S,2R)-2-[(4-hydroxy-4-phenyl-1-piperidyl)methyl]-1-(p-tolyl)cyclopropanecarboxylate
@<TRIPOS>ATOM
      1 C1         -8.8883   -3.1101   -7.6859 C.3       1 <0>        -0.1264
      2 C2         -8.7714   -2.4172   -6.3527 C.ar      1 <0>        -0.0684
      3 C3         -9.8392   -2.4227   -5.4749 C.ar      1 <0>        -0.1148
      4 C4         -9.7320   -1.7871   -4.2520 C.ar      1 <0>        -0.0961
      5 C5         -8.5566   -1.1468   -3.9066 C.ar      1 <0>        -0.0812
      6 C6         -7.4904   -1.1371   -4.7864 C.ar      1 <0>        -0.1058
      7 C7         -7.5962   -1.7764   -6.0075 C.ar      1 <0>        -0.1199
      8 C8         -8.4397   -0.4539   -2.5734 C.3       1 <0>        -0.0785
      9 C9         -8.3512    1.0743   -2.5766 C.3       1 <0>        -0.1212
     10 C10        -7.1133    0.2366   -2.2500 C.3       1 <0>        -0.1254
     11 H1         -6.0882    0.1764   -2.6445 H         1 <0>         0.1441
     12 C11        -6.6404    0.2122   -0.7951 C.3       1 <0>        -0.0033
     13 N1         -5.3045    0.8164   -0.7042 N.4       1 <0>        -0.3993
     14 C12        -4.9165    1.0272    0.6963 C.3       1 <0>         0.0036
     15 C13        -3.5894    1.7875    0.7504 C.3       1 <0>        -0.1333
     16 C14        -2.5137    0.9795    0.0193 C.3       1 <0>         0.1859
     17 C15        -2.9643    0.7323   -1.4231 C.3       1 <0>        -0.1685
     18 C16        -4.3095    0.0026   -1.4142 C.3       1 <0>        -0.0082
     19 C17        -1.2190    1.7506    0.0173 C.ar      1 <0>        -0.1263
     20 C18        -0.0126    1.0758    0.0080 C.ar      1 <0>        -0.1062
     21 C19         1.1750    1.7832    0.0004 C.ar      1 <0>        -0.1112
     22 C20         1.1563    3.1654    0.0081 C.ar      1 <0>        -0.1076
     23 C21        -0.0501    3.8402    0.0228 C.ar      1 <0>        -0.1129
     24 C22        -1.2377    3.1328    0.0294 C.ar      1 <0>        -0.1162
     25 O1         -2.3232   -0.2719    0.6825 O.3       1 <0>        -0.5789
     26 C23        -9.1805   -1.1060   -1.4346 C.2       1 <0>         0.5044
     27 O2         -8.7225   -1.0707   -0.3170 O.2       1 <0>        -0.5124
     28 O3        -10.3492   -1.7260   -1.6616 O.3       1 <0>        -0.3382
     29 C24       -11.0072   -2.3319   -0.5178 C.3       1 <0>         0.0257
     30 H2         -9.8884   -3.5585   -7.7796 H         1 <0>         0.0705
     31 H3         -8.1247   -3.8986   -7.7575 H         1 <0>         0.0748
     32 H4         -8.7371   -2.3789   -8.4936 H         1 <0>         0.0756
     33 H5        -10.7574   -2.9233   -5.7446 H         1 <0>         0.1294
     34 H6        -10.5664   -1.7912   -3.5664 H         1 <0>         0.1443
     35 H7         -6.5737   -0.6331   -4.5183 H         1 <0>         0.1172
     36 H8         -6.7618   -1.7724   -6.6932 H         1 <0>         0.1273
     37 H9         -8.6120    1.4546   -3.5753 H         1 <0>         0.1346
     38 H10        -9.0518    1.4837   -1.8339 H         1 <0>         0.1253
     39 H11        -7.3441    0.7828   -0.1712 H         1 <0>         0.1371
     40 H12        -6.5971   -0.8284   -0.4410 H         1 <0>         0.1441
     41 H13        -5.6948    1.6121    1.2083 H         1 <0>         0.1326
     42 H14        -4.8015    0.0537    1.1954 H         1 <0>         0.1354
     43 H15        -3.7081    2.7672    0.2646 H         1 <0>         0.1042
     44 H16        -3.2921    1.9321    1.7996 H         1 <0>         0.1218
     45 H17        -3.0709    1.6952   -1.9440 H         1 <0>         0.0990
     46 H18        -2.2144    0.1163   -1.9411 H         1 <0>         0.1155
     47 H19        -4.1973   -0.9660   -0.9051 H         1 <0>         0.1353
     48 H20        -4.6428   -0.1636   -2.4492 H         1 <0>         0.1312
     49 H21         0.0021   -0.0041    0.0020 H         1 <0>         0.1215
     50 H22         2.1175    1.2560   -0.0111 H         1 <0>         0.1290
     51 H23         2.0841    3.7181    0.0029 H         1 <0>         0.1290
     52 H24        -0.0647    4.9201    0.0295 H         1 <0>         0.1284
     53 H25        -2.1802    3.6600    0.0413 H         1 <0>         0.1228
     54 H26        -1.5848   -0.9911    0.2984 H         1 <0>         0.4205
     55 H27       -11.9473   -2.8020   -0.8422 H         1 <0>         0.1132
     56 H28       -11.2243   -1.5577    0.2329 H         1 <0>         0.0704
     57 H29       -10.3485   -3.0950   -0.0776 H         1 <0>         0.0701
     58 H30        -5.3429    1.8010   -1.1932 H         1 <0>         0.4361
@<TRIPOS>BOND
     1    1    2 1
     2    1   30 1
     3    1   31 1
     4    1   32 1
     5    2    7 ar
     6    2    3 ar
     7    3    4 ar
     8    3   33 1
     9    4    5 ar
    10    4   34 1
    11    5    6 ar
    12    5    8 1
    13    6    7 ar
    14    6   35 1
    15    7   36 1
    16    8   10 1
    17    8    9 1
    18    8   26 1
    19    9   10 1
    20    9   37 1
    21    9   38 1
    22   10   11 1
    23   10   12 1
    24   12   13 1
    25   12   39 1
    26   12   40 1
    27   13   18 1
    28   13   14 1
    29   13   58 1
    30   14   15 1
    31   14   41 1
    32   14   42 1
    33   15   16 1
    34   15   43 1
    35   15   44 1
    36   16   17 1
    37   16   19 1
    38   16   25 1
    39   17   18 1
    40   17   45 1
    41   17   46 1
    42   18   47 1
    43   18   48 1
    44   19   24 ar
    45   19   20 ar
    46   20   21 ar
    47   20   49 1
    48   21   22 ar
    49   21   50 1
    50   22   23 ar
    51   22   51 1
    52   23   24 ar
    53   23   52 1
    54   24   53 1
    55   25   54 1
    56   26   27 2
    57   26   28 1
    58   28   29 1
    59   29   55 1
    60   29   56 1
    61   29   57 1
@<TRIPOS>MOLECULE
ZINC19536238
   47    49     0     0     0
SMALL
USER_CHARGES
1-benzyl-4-[(4-methoxyphenyl)methyl]piperazine
@<TRIPOS>ATOM
      1 C1         -5.5580   -2.1858    2.3258 C.3       1 <0>         0.0212
      2 O1         -5.1927   -1.9571    0.9633 O.3       1 <0>        -0.3147
      3 C2         -3.9392   -1.4862    0.7314 C.ar      1 <0>         0.1402
      4 C3         -3.5182   -1.2417   -0.5677 C.ar      1 <0>        -0.1522
      5 C4         -2.2436   -0.7626   -0.8008 C.ar      1 <0>        -0.0771
      6 C5         -1.3878   -0.5267    0.2592 C.ar      1 <0>        -0.1360
      7 C6         -1.8031   -0.7749    1.5545 C.ar      1 <0>        -0.0523
      8 C7         -3.0786   -1.2487    1.7933 C.ar      1 <0>        -0.2078
      9 C8          0.0021   -0.0041    0.0020 C.3       1 <0>         0.1018
     10 N1         -0.0178    1.4648    0.0101 N.3       1 <0>        -0.5347
     11 C9         -0.7990    1.9871   -1.1198 C.3       1 <0>         0.0216
     12 C10        -0.8618    3.5137   -1.0307 C.3       1 <0>        -0.0024
     13 N2          0.5028    4.0590   -1.0408 N.4       1 <0>        -0.3985
     14 C11         1.2840    3.5367    0.0891 C.3       1 <0>         0.0017
     15 C12         1.3468    2.0100   -0.0000 C.3       1 <0>         0.0247
     16 C13         0.4829    5.5278   -1.0327 C.3       1 <0>         0.0472
     17 C14        -0.5170    6.0222   -2.0461 C.ar      1 <0>        -0.1589
     18 C15        -0.1183    6.2706   -3.3462 C.ar      1 <0>        -0.0949
     19 C16        -1.0365    6.7195   -4.2769 C.ar      1 <0>        -0.1137
     20 C17        -2.3512    6.9296   -3.9050 C.ar      1 <0>        -0.0848
     21 C18        -2.7486    6.6867   -2.6035 C.ar      1 <0>        -0.1138
     22 C19        -1.8316    6.2328   -1.6741 C.ar      1 <0>        -0.0963
     23 H1         -6.5903   -2.5632    2.3702 H         1 <0>         0.1074
     24 H2         -5.4879   -1.2426    2.8875 H         1 <0>         0.0586
     25 H3         -4.8770   -2.9276    2.7684 H         1 <0>         0.0600
     26 H4         -4.1861   -1.4261   -1.3961 H         1 <0>         0.1337
     27 H5         -1.9155   -0.5717   -1.8119 H         1 <0>         0.1247
     28 H6         -1.1311   -0.5944    2.3805 H         1 <0>         0.1264
     29 H7         -3.4040   -1.4382    2.8055 H         1 <0>         0.1320
     30 H8          0.6812   -0.3660    0.7881 H         1 <0>         0.0958
     31 H9          0.3524   -0.3607   -0.9779 H         1 <0>         0.0549
     32 H10        -0.3184    1.6934   -2.0647 H         1 <0>         0.0594
     33 H11        -1.8180    1.5744   -1.0830 H         1 <0>         0.1258
     34 H12        -1.4218    3.9085   -1.8912 H         1 <0>         0.1368
     35 H13        -1.3676    3.8061   -0.0987 H         1 <0>         0.1327
     36 H14         2.3030    3.9494    0.0522 H         1 <0>         0.1366
     37 H15         0.8035    3.8304    1.0340 H         1 <0>         0.1350
     38 H16         1.9061    1.6142    0.8605 H         1 <0>         0.1241
     39 H17         1.8520    1.7166   -0.9320 H         1 <0>         0.0610
     40 H18         0.1981    5.8851   -0.0321 H         1 <0>         0.1332
     41 H19         1.4826    5.9095   -1.2875 H         1 <0>         0.1377
     42 H20         0.9098    6.1103   -3.6357 H         1 <0>         0.1306
     43 H21        -0.7259    6.9096   -5.2936 H         1 <0>         0.1356
     44 H22        -3.0678    7.2839   -4.6313 H         1 <0>         0.1356
     45 H23        -3.7757    6.8511   -2.3129 H         1 <0>         0.1358
     46 H24        -2.1421    6.0430   -0.6573 H         1 <0>         0.1299
     47 H25         0.9916    3.7339   -1.9711 H         1 <0>         0.4365
@<TRIPOS>BOND
     1    1    2 1
     2    1   23 1
     3    1   24 1
     4    1   25 1
     5    2    3 1
     6    3    8 ar
     7    3    4 ar
     8    4    5 ar
     9    4   26 1
    10    5    6 ar
    11    5   27 1
    12    6    7 ar
    13    6    9 1
    14    7    8 ar
    15    7   28 1
    16    8   29 1
    17    9   10 1
    18    9   30 1
    19    9   31 1
    20   10   15 1
    21   10   11 1
    22   11   12 1
    23   11   32 1
    24   11   33 1
    25   12   13 1
    26   12   34 1
    27   12   35 1
    28   13   14 1
    29   13   16 1
    30   13   47 1
    31   14   15 1
    32   14   36 1
    33   14   37 1
    34   15   38 1
    35   15   39 1
    36   16   17 1
    37   16   40 1
    38   16   41 1
    39   17   22 ar
    40   17   18 ar
    41   18   19 ar
    42   18   42 1
    43   19   20 ar
    44   19   43 1
    45   20   21 ar
    46   20   44 1
    47   21   22 ar
    48   21   45 1
    49   22   46 1
@<TRIPOS>MOLECULE
ZINC19536238
   47    49     0     0     0
SMALL
USER_CHARGES
1-benzyl-4-[(4-methoxyphenyl)methyl]piperazine
@<TRIPOS>ATOM
      1 C1         -5.5580   -2.1858    2.3258 C.3       1 <0>         0.0174
      2 O1         -5.1927   -1.9571    0.9633 O.3       1 <0>        -0.3069
      3 C2         -3.9392   -1.4862    0.7314 C.ar      1 <0>         0.1673
      4 C3         -3.5182   -1.2417   -0.5677 C.ar      1 <0>        -0.1501
      5 C4         -2.2436   -0.7626   -0.8008 C.ar      1 <0>        -0.0541
      6 C5         -1.3878   -0.5267    0.2592 C.ar      1 <0>        -0.2040
      7 C6         -1.8031   -0.7749    1.5545 C.ar      1 <0>        -0.0494
      8 C7         -3.0786   -1.2487    1.7933 C.ar      1 <0>        -0.2088
      9 C8          0.0021   -0.0041    0.0020 C.3       1 <0>         0.0531
     10 N1         -0.0178    1.4648    0.0101 N.4       1 <0>        -0.3997
     11 C9         -0.7990    1.9871   -1.1198 C.3       1 <0>        -0.0028
     12 C10        -0.8618    3.5137   -1.0307 C.3       1 <0>         0.0212
     13 N2          0.5028    4.0590   -1.0408 N.3       1 <0>        -0.5327
     14 C11         1.2840    3.5367    0.0891 C.3       1 <0>         0.0244
     15 C12         1.3468    2.0100   -0.0000 C.3       1 <0>         0.0011
     16 C13         0.4829    5.5278   -1.0327 C.3       1 <0>         0.0962
     17 C14        -0.5170    6.0222   -2.0461 C.ar      1 <0>        -0.1039
     18 C15        -0.1183    6.2706   -3.3462 C.ar      1 <0>        -0.0951
     19 C16        -1.0365    6.7195   -4.2769 C.ar      1 <0>        -0.1163
     20 C17        -2.3512    6.9296   -3.9050 C.ar      1 <0>        -0.1085
     21 C18        -2.7486    6.6867   -2.6035 C.ar      1 <0>        -0.1183
     22 C19        -1.8316    6.2328   -1.6741 C.ar      1 <0>        -0.1187
     23 H1         -6.5903   -2.5632    2.3702 H         1 <0>         0.1132
     24 H2         -5.4879   -1.2426    2.8875 H         1 <0>         0.0627
     25 H3         -4.8770   -2.9276    2.7684 H         1 <0>         0.0639
     26 H4         -4.1861   -1.4261   -1.3961 H         1 <0>         0.1438
     27 H5         -1.9155   -0.5717   -1.8119 H         1 <0>         0.1373
     28 H6         -1.1311   -0.5944    2.3805 H         1 <0>         0.1335
     29 H7         -3.4040   -1.4382    2.8055 H         1 <0>         0.1407
     30 H8          0.6812   -0.3660    0.7881 H         1 <0>         0.1359
     31 H9          0.3524   -0.3607   -0.9779 H         1 <0>         0.1328
     32 H10        -0.3184    1.6934   -2.0647 H         1 <0>         0.1340
     33 H11        -1.8180    1.5744   -1.0830 H         1 <0>         0.1344
     34 H12        -1.4218    3.9085   -1.8912 H         1 <0>         0.1280
     35 H13        -1.3676    3.8061   -0.0987 H         1 <0>         0.0583
     36 H14         2.3030    3.9494    0.0522 H         1 <0>         0.1244
     37 H15         0.8035    3.8304    1.0340 H         1 <0>         0.0605
     38 H16         1.9061    1.6142    0.8605 H         1 <0>         0.1361
     39 H17         1.8520    1.7166   -0.9320 H         1 <0>         0.1358
     40 H18         0.1981    5.8851   -0.0321 H         1 <0>         0.0553
     41 H19         1.4826    5.9095   -1.2875 H         1 <0>         0.0992
     42 H20         0.9098    6.1103   -3.6357 H         1 <0>         0.1257
     43 H21        -0.7259    6.9096   -5.2936 H         1 <0>         0.1275
     44 H22        -3.0678    7.2839   -4.6313 H         1 <0>         0.1270
     45 H23        -3.7757    6.8511   -2.3129 H         1 <0>         0.1258
     46 H24        -2.1421    6.0430   -0.6573 H         1 <0>         0.1174
     47 H25        -0.5066    1.7900    0.9403 H         1 <0>         0.4355
@<TRIPOS>BOND
     1    1    2 1
     2    1   23 1
     3    1   24 1
     4    1   25 1
     5    2    3 1
     6    3    8 ar
     7    3    4 ar
     8    4    5 ar
     9    4   26 1
    10    5    6 ar
    11    5   27 1
    12    6    7 ar
    13    6    9 1
    14    7    8 ar
    15    7   28 1
    16    8   29 1
    17    9   10 1
    18    9   30 1
    19    9   31 1
    20   10   15 1
    21   10   11 1
    22   10   47 1
    23   11   12 1
    24   11   32 1
    25   11   33 1
    26   12   13 1
    27   12   34 1
    28   12   35 1
    29   13   14 1
    30   13   16 1
    31   14   15 1
    32   14   36 1
    33   14   37 1
    34   15   38 1
    35   15   39 1
    36   16   17 1
    37   16   40 1
    38   16   41 1
    39   17   22 ar
    40   17   18 ar
    41   18   19 ar
    42   18   42 1
    43   19   20 ar
    44   19   43 1
    45   20   21 ar
    46   20   44 1
    47   21   22 ar
    48   21   45 1
    49   22   46 1
@<TRIPOS>MOLECULE
ZINC19536238
   46    48     0     0     0
SMALL
USER_CHARGES
1-benzyl-4-[(4-methoxyphenyl)methyl]piperazine
@<TRIPOS>ATOM
      1 C1         -5.5580   -2.1858    2.3258 C.3       1 <0>         0.0236
      2 O1         -5.1927   -1.9571    0.9633 O.3       1 <0>        -0.3183
      3 C2         -3.9392   -1.4862    0.7314 C.ar      1 <0>         0.1274
      4 C3         -3.5182   -1.2417   -0.5677 C.ar      1 <0>        -0.1521
      5 C4         -2.2436   -0.7626   -0.8008 C.ar      1 <0>        -0.0744
      6 C5         -1.3878   -0.5267    0.2592 C.ar      1 <0>        -0.1157
      7 C6         -1.8031   -0.7749    1.5545 C.ar      1 <0>        -0.0576
      8 C7         -3.0786   -1.2487    1.7933 C.ar      1 <0>        -0.2086
      9 C8          0.0021   -0.0041    0.0020 C.3       1 <0>         0.0973
     10 N1         -0.0178    1.4648    0.0101 N.3       1 <0>        -0.5344
     11 C9         -0.7990    1.9871   -1.1198 C.3       1 <0>         0.0535
     12 C10        -0.8618    3.5137   -1.0307 C.3       1 <0>         0.0542
     13 N2          0.5028    4.0590   -1.0408 N.3       1 <0>        -0.5329
     14 C11         1.2840    3.5367    0.0891 C.3       1 <0>         0.0560
     15 C12         1.3468    2.0100   -0.0000 C.3       1 <0>         0.0564
     16 C13         0.4829    5.5278   -1.0327 C.3       1 <0>         0.0924
     17 C14        -0.5170    6.0222   -2.0461 C.ar      1 <0>        -0.0848
     18 C15        -0.1183    6.2706   -3.3462 C.ar      1 <0>        -0.0995
     19 C16        -1.0365    6.7195   -4.2769 C.ar      1 <0>        -0.1206
     20 C17        -2.3512    6.9296   -3.9050 C.ar      1 <0>        -0.1189
     21 C18        -2.7486    6.6867   -2.6035 C.ar      1 <0>        -0.1206
     22 C19        -1.8316    6.2328   -1.6741 C.ar      1 <0>        -0.1139
     23 H1         -6.5903   -2.5632    2.3702 H         1 <0>         0.1023
     24 H2         -5.4879   -1.2426    2.8875 H         1 <0>         0.0566
     25 H3         -4.8770   -2.9276    2.7684 H         1 <0>         0.0567
     26 H4         -4.1861   -1.4261   -1.3961 H         1 <0>         0.1302
     27 H5         -1.9155   -0.5717   -1.8119 H         1 <0>         0.1258
     28 H6         -1.1311   -0.5944    2.3805 H         1 <0>         0.1248
     29 H7         -3.4040   -1.4382    2.8055 H         1 <0>         0.1277
     30 H8          0.6812   -0.3660    0.7881 H         1 <0>         0.0836
     31 H9          0.3524   -0.3607   -0.9779 H         1 <0>         0.0442
     32 H10        -0.3184    1.6934   -2.0647 H         1 <0>         0.0414
     33 H11        -1.8180    1.5744   -1.0830 H         1 <0>         0.0839
     34 H12        -1.4218    3.9085   -1.8912 H         1 <0>         0.0859
     35 H13        -1.3676    3.8061   -0.0987 H         1 <0>         0.0406
     36 H14         2.3030    3.9494    0.0522 H         1 <0>         0.0817
     37 H15         0.8035    3.8304    1.0340 H         1 <0>         0.0438
     38 H16         1.9061    1.6142    0.8605 H         1 <0>         0.0815
     39 H17         1.8520    1.7166   -0.9320 H         1 <0>         0.0440
     40 H18         0.1981    5.8851   -0.0321 H         1 <0>         0.0444
     41 H19         1.4826    5.9095   -1.2875 H         1 <0>         0.0858
     42 H20         0.9098    6.1103   -3.6357 H         1 <0>         0.1230
     43 H21        -0.7259    6.9096   -5.2936 H         1 <0>         0.1223
     44 H22        -3.0678    7.2839   -4.6313 H         1 <0>         0.1214
     45 H23        -3.7757    6.8511   -2.3129 H         1 <0>         0.1218
     46 H24        -2.1421    6.0430   -0.6573 H         1 <0>         0.1180
@<TRIPOS>BOND
     1    1    2 1
     2    1   23 1
     3    1   24 1
     4    1   25 1
     5    2    3 1
     6    3    8 ar
     7    3    4 ar
     8    4    5 ar
     9    4   26 1
    10    5    6 ar
    11    5   27 1
    12    6    7 ar
    13    6    9 1
    14    7    8 ar
    15    7   28 1
    16    8   29 1
    17    9   10 1
    18    9   30 1
    19    9   31 1
    20   10   15 1
    21   10   11 1
    22   11   12 1
    23   11   32 1
    24   11   33 1
    25   12   13 1
    26   12   34 1
    27   12   35 1
    28   13   14 1
    29   13   16 1
    30   14   15 1
    31   14   36 1
    32   14   37 1
    33   15   38 1
    34   15   39 1
    35   16   17 1
    36   16   40 1
    37   16   41 1
    38   17   22 ar
    39   17   18 ar
    40   18   19 ar
    41   18   42 1
    42   19   20 ar
    43   19   43 1
    44   20   21 ar
    45   20   44 1
    46   21   22 ar
    47   21   45 1
    48   22   46 1
@<TRIPOS>MOLECULE
ZINC22012325
   60    62     0     0     0
SMALL
USER_CHARGES
1-[2-(3,4-dimethoxyphenyl)ethyl]-4-(3-phenylpropyl)piperazine
@<TRIPOS>ATOM
      1 C1          1.5825   -1.5608    6.3572 C.3       1 <0>         0.0193
      2 O1          1.9921   -0.2961    5.8330 O.3       1 <0>        -0.3012
      3 C2          1.3360    0.1575    4.7315 C.ar      1 <0>         0.1175
      4 C3          0.3208   -0.5984    4.1676 C.ar      1 <0>        -0.1718
      5 C4         -0.3486   -0.1335    3.0510 C.ar      1 <0>        -0.1027
      6 C5          0.0000    1.0800    2.4877 C.ar      1 <0>        -0.1079
      7 C6          1.0120    1.8391    3.0453 C.ar      1 <0>        -0.1658
      8 C7          1.6831    1.3815    4.1678 C.ar      1 <0>         0.1058
      9 O2          2.6791    2.1268    4.7173 O.3       1 <0>        -0.3007
     10 C8          2.9816    3.3723    4.0854 C.3       1 <0>         0.0219
     11 C9         -0.7288    1.5792    1.2668 C.3       1 <0>        -0.0945
     12 C10        -0.0127    1.0858    0.0080 C.3       1 <0>        -0.0037
     13 N1         -0.7232    1.5724   -1.1821 N.4       1 <0>        -0.4010
     14 C11        -2.0582    0.9664   -1.2830 C.3       1 <0>        -0.0041
     15 C12        -2.7940    1.5574   -2.4879 C.3       1 <0>         0.0170
     16 N2         -2.0121    1.3078   -3.7068 N.3       1 <0>        -0.5384
     17 C13        -0.6771    1.9138   -3.6059 C.3       1 <0>         0.0249
     18 C14         0.0588    1.3229   -2.4010 C.3       1 <0>         0.0013
     19 C15        -2.7225    1.7944   -4.8969 C.3       1 <0>         0.0525
     20 C16        -4.1835    1.3438   -4.8385 C.3       1 <0>        -0.1196
     21 C17        -4.9235    1.8506   -6.0780 C.3       1 <0>        -0.0802
     22 C18        -6.3625    1.4068   -6.0205 C.ar      1 <0>        -0.0895
     23 C19        -6.7366    0.2001   -6.5816 C.ar      1 <0>        -0.1167
     24 C20        -8.0557   -0.2093   -6.5246 C.ar      1 <0>        -0.1158
     25 C21        -9.0025    0.5926   -5.9153 C.ar      1 <0>        -0.1198
     26 C22        -8.6295    1.8020   -5.3592 C.ar      1 <0>        -0.1171
     27 C23        -7.3094    2.2089   -5.4116 C.ar      1 <0>        -0.1195
     28 H1          2.1904   -1.8058    7.2406 H         1 <0>         0.1095
     29 H2          1.7201   -2.3375    5.5905 H         1 <0>         0.0592
     30 H3          0.5216   -1.5126    6.6440 H         1 <0>         0.0600
     31 H4          0.0495   -1.5488    4.6031 H         1 <0>         0.1419
     32 H5         -1.1427   -0.7215    2.6151 H         1 <0>         0.1286
     33 H6          1.2791    2.7889    2.6061 H         1 <0>         0.1365
     34 H7          3.7998    3.8692    4.6273 H         1 <0>         0.1086
     35 H8          2.0896    4.0159    4.0978 H         1 <0>         0.0571
     36 H9          3.2882    3.1905    3.0447 H         1 <0>         0.0547
     37 H10        -1.7608    1.1985    1.2746 H         1 <0>         0.0955
     38 H11        -0.7437    2.6791    1.2728 H         1 <0>         0.0937
     39 H12         1.0193    1.4666    0.0002 H         1 <0>         0.1321
     40 H13         0.0023   -0.0141    0.0019 H         1 <0>         0.1306
     41 H14        -1.9583   -0.1216   -1.4107 H         1 <0>         0.1355
     42 H15        -2.6269    1.1772   -0.3653 H         1 <0>         0.1362
     43 H16        -3.7826    1.0843   -2.5820 H         1 <0>         0.1291
     44 H17        -2.9182    2.6412   -2.3463 H         1 <0>         0.0604
     45 H18        -0.1084    1.7029   -4.5236 H         1 <0>         0.1236
     46 H19        -0.7770    3.0018   -3.4783 H         1 <0>         0.0606
     47 H20         1.0473    1.7960   -2.3057 H         1 <0>         0.1356
     48 H21         0.1831    0.2390   -2.5415 H         1 <0>         0.1354
     49 H22        -2.6785    2.8931   -4.9265 H         1 <0>         0.0478
     50 H23        -2.2480    1.3840   -5.8005 H         1 <0>         0.0926
     51 H24        -4.2274    0.2451   -4.8089 H         1 <0>         0.0787
     52 H25        -4.6579    1.7541   -3.9349 H         1 <0>         0.0671
     53 H26        -4.8796    2.9493   -6.1076 H         1 <0>         0.0736
     54 H27        -4.4491    1.4403   -6.9816 H         1 <0>         0.0775
     55 H28        -5.9975   -0.4246   -7.0613 H         1 <0>         0.1212
     56 H29        -8.3472   -1.1540   -6.9594 H         1 <0>         0.1242
     57 H30       -10.0338    0.2745   -5.8740 H         1 <0>         0.1240
     58 H31        -9.3693    2.4287   -4.8834 H         1 <0>         0.1233
     59 H32        -7.0180    3.1537   -4.9771 H         1 <0>         0.1185
     60 H33        -0.8508    2.6599   -1.0770 H         1 <0>         0.4366
@<TRIPOS>BOND
     1    1    2 1
     2    1   28 1
     3    1   29 1
     4    1   30 1
     5    2    3 1
     6    3    8 ar
     7    3    4 ar
     8    4    5 ar
     9    4   31 1
    10    5    6 ar
    11    5   32 1
    12    6    7 ar
    13    6   11 1
    14    7    8 ar
    15    7   33 1
    16    8    9 1
    17    9   10 1
    18   10   34 1
    19   10   35 1
    20   10   36 1
    21   11   12 1
    22   11   37 1
    23   11   38 1
    24   12   13 1
    25   12   39 1
    26   12   40 1
    27   13   18 1
    28   13   14 1
    29   13   60 1
    30   14   15 1
    31   14   41 1
    32   14   42 1
    33   15   16 1
    34   15   43 1
    35   15   44 1
    36   16   17 1
    37   16   19 1
    38   17   18 1
    39   17   45 1
    40   17   46 1
    41   18   47 1
    42   18   48 1
    43   19   20 1
    44   19   49 1
    45   19   50 1
    46   20   21 1
    47   20   51 1
    48   20   52 1
    49   21   22 1
    50   21   53 1
    51   21   54 1
    52   22   27 ar
    53   22   23 ar
    54   23   24 ar
    55   23   55 1
    56   24   25 ar
    57   24   56 1
    58   25   26 ar
    59   25   57 1
    60   26   27 ar
    61   26   58 1
    62   27   59 1
@<TRIPOS>MOLECULE
ZINC22012325
   60    62     0     0     0
SMALL
USER_CHARGES
1-[2-(3,4-dimethoxyphenyl)ethyl]-4-(3-phenylpropyl)piperazine
@<TRIPOS>ATOM
      1 C1          1.5825   -1.5608    6.3572 C.3       1 <0>         0.0214
      2 O1          1.9921   -0.2961    5.8330 O.3       1 <0>        -0.3042
      3 C2          1.3360    0.1575    4.7315 C.ar      1 <0>         0.1047
      4 C3          0.3208   -0.5984    4.1676 C.ar      1 <0>        -0.1712
      5 C4         -0.3486   -0.1335    3.0510 C.ar      1 <0>        -0.1118
      6 C5          0.0000    1.0800    2.4877 C.ar      1 <0>        -0.0932
      7 C6          1.0120    1.8391    3.0453 C.ar      1 <0>        -0.1671
      8 C7          1.6831    1.3815    4.1678 C.ar      1 <0>         0.1041
      9 O2          2.6791    2.1268    4.7173 O.3       1 <0>        -0.3036
     10 C8          2.9816    3.3723    4.0854 C.3       1 <0>         0.0227
     11 C9         -0.7288    1.5792    1.2668 C.3       1 <0>        -0.0710
     12 C10        -0.0127    1.0858    0.0080 C.3       1 <0>         0.0588
     13 N1         -0.7232    1.5724   -1.1821 N.3       1 <0>        -0.5396
     14 C11        -2.0582    0.9664   -1.2830 C.3       1 <0>         0.0199
     15 C12        -2.7940    1.5574   -2.4879 C.3       1 <0>        -0.0067
     16 N2         -2.0121    1.3078   -3.7068 N.4       1 <0>        -0.4003
     17 C13        -0.6771    1.9138   -3.6059 C.3       1 <0>         0.0018
     18 C14         0.0588    1.3229   -2.4010 C.3       1 <0>         0.0248
     19 C15        -2.7225    1.7944   -4.8969 C.3       1 <0>        -0.0066
     20 C16        -4.1835    1.3438   -4.8385 C.3       1 <0>        -0.1458
     21 C17        -4.9235    1.8506   -6.0780 C.3       1 <0>        -0.0747
     22 C18        -6.3625    1.4068   -6.0205 C.ar      1 <0>        -0.1001
     23 C19        -6.7366    0.2001   -6.5816 C.ar      1 <0>        -0.1158
     24 C20        -8.0557   -0.2093   -6.5246 C.ar      1 <0>        -0.1154
     25 C21        -9.0025    0.5926   -5.9153 C.ar      1 <0>        -0.1133
     26 C22        -8.6295    1.8020   -5.3592 C.ar      1 <0>        -0.1153
     27 C23        -7.3094    2.2089   -5.4116 C.ar      1 <0>        -0.1159
     28 H1          2.1904   -1.8058    7.2406 H         1 <0>         0.1064
     29 H2          1.7201   -2.3375    5.5905 H         1 <0>         0.0567
     30 H3          0.5216   -1.5126    6.6440 H         1 <0>         0.0576
     31 H4          0.0495   -1.5488    4.6031 H         1 <0>         0.1375
     32 H5         -1.1427   -0.7215    2.6151 H         1 <0>         0.1235
     33 H6          1.2791    2.7889    2.6061 H         1 <0>         0.1355
     34 H7          3.7998    3.8692    4.6273 H         1 <0>         0.1058
     35 H8          2.0896    4.0159    4.0978 H         1 <0>         0.0565
     36 H9          3.2882    3.1905    3.0447 H         1 <0>         0.0547
     37 H10        -1.7608    1.1985    1.2746 H         1 <0>         0.0734
     38 H11        -0.7437    2.6791    1.2728 H         1 <0>         0.0845
     39 H12         1.0193    1.4666    0.0002 H         1 <0>         0.0900
     40 H13         0.0023   -0.0141    0.0019 H         1 <0>         0.0497
     41 H14        -1.9583   -0.1216   -1.4107 H         1 <0>         0.0610
     42 H15        -2.6269    1.1772   -0.3653 H         1 <0>         0.1255
     43 H16        -3.7826    1.0843   -2.5820 H         1 <0>         0.1392
     44 H17        -2.9182    2.6412   -2.3463 H         1 <0>         0.1355
     45 H18        -0.1084    1.7029   -4.5236 H         1 <0>         0.1360
     46 H19        -0.7770    3.0018   -3.4783 H         1 <0>         0.1350
     47 H20         1.0473    1.7960   -2.3057 H         1 <0>         0.1235
     48 H21         0.1831    0.2390   -2.5415 H         1 <0>         0.0609
     49 H22        -2.6785    2.8931   -4.9265 H         1 <0>         0.1285
     50 H23        -2.2480    1.3840   -5.8005 H         1 <0>         0.1327
     51 H24        -4.2274    0.2451   -4.8089 H         1 <0>         0.0882
     52 H25        -4.6579    1.7541   -3.9349 H         1 <0>         0.0908
     53 H26        -4.8796    2.9493   -6.1076 H         1 <0>         0.0830
     54 H27        -4.4491    1.4403   -6.9816 H         1 <0>         0.0831
     55 H28        -5.9975   -0.4246   -7.0613 H         1 <0>         0.1211
     56 H29        -8.3472   -1.1540   -6.9594 H         1 <0>         0.1260
     57 H30       -10.0338    0.2745   -5.8740 H         1 <0>         0.1265
     58 H31        -9.3693    2.4287   -4.8834 H         1 <0>         0.1261
     59 H32        -7.0180    3.1537   -4.9771 H         1 <0>         0.1211
     60 H33        -1.8846    0.2203   -3.8119 H         1 <0>         0.4381
@<TRIPOS>BOND
     1    1    2 1
     2    1   28 1
     3    1   29 1
     4    1   30 1
     5    2    3 1
     6    3    8 ar
     7    3    4 ar
     8    4    5 ar
     9    4   31 1
    10    5    6 ar
    11    5   32 1
    12    6    7 ar
    13    6   11 1
    14    7    8 ar
    15    7   33 1
    16    8    9 1
    17    9   10 1
    18   10   34 1
    19   10   35 1
    20   10   36 1
    21   11   12 1
    22   11   37 1
    23   11   38 1
    24   12   13 1
    25   12   39 1
    26   12   40 1
    27   13   18 1
    28   13   14 1
    29   14   15 1
    30   14   41 1
    31   14   42 1
    32   15   16 1
    33   15   43 1
    34   15   44 1
    35   16   17 1
    36   16   19 1
    37   16   60 1
    38   17   18 1
    39   17   45 1
    40   17   46 1
    41   18   47 1
    42   18   48 1
    43   19   20 1
    44   19   49 1
    45   19   50 1
    46   20   21 1
    47   20   51 1
    48   20   52 1
    49   21   22 1
    50   21   53 1
    51   21   54 1
    52   22   27 ar
    53   22   23 ar
    54   23   24 ar
    55   23   55 1
    56   24   25 ar
    57   24   56 1
    58   25   26 ar
    59   25   57 1
    60   26   27 ar
    61   26   58 1
    62   27   59 1
@<TRIPOS>MOLECULE
ZINC00598622
   60    61     0     0     0
SMALL
USER_CHARGES
N-[2-(4-methoxy-3-phenethyloxy-phenyl)ethyl]-N-propyl-propan-1-amine
@<TRIPOS>ATOM
      1 C1         -3.4939    6.6424   -4.5066 C.3       1 <0>        -0.1560
      2 C2         -3.3375    6.2721   -3.0303 C.3       1 <0>        -0.1508
      3 C3         -4.2485    5.0874   -2.7024 C.3       1 <0>        -0.0100
      4 C4         -5.3530    4.0242   -0.8283 C.3       1 <0>        -0.0130
      5 C5         -6.5985    4.9127   -0.8405 C.3       1 <0>        -0.1509
      6 C6         -7.8149    4.0918   -0.4078 C.3       1 <0>        -0.1561
      7 C7         -2.9353    4.1266   -0.9093 C.3       1 <0>        -0.0051
      8 C8         -2.7933    4.0750    0.6132 C.3       1 <0>        -0.0956
      9 C9         -1.5079    3.3764    0.9745 C.ar      1 <0>        -0.1071
     10 C10        -1.4944    2.0055    1.1528 C.ar      1 <0>        -0.1034
     11 C11        -0.3189    1.3606    1.4895 C.ar      1 <0>        -0.1713
     12 C12         0.8516    2.0871    1.6386 C.ar      1 <0>         0.1175
     13 C13         0.8392    3.4663    1.4539 C.ar      1 <0>         0.1111
     14 C14        -0.3436    4.1071    1.1217 C.ar      1 <0>        -0.1662
     15 O1          1.9855    4.1836    1.5987 O.3       1 <0>        -0.2990
     16 C15         1.8977    5.5951    1.3940 C.3       1 <0>         0.0671
     17 C16         3.2762    6.2268    1.5986 C.3       1 <0>        -0.0799
     18 C17         3.1836    7.7153    1.3828 C.ar      1 <0>        -0.0891
     19 C18         3.3896    8.2452    0.1227 C.ar      1 <0>        -0.1147
     20 C19         3.2995    9.6102   -0.0763 C.ar      1 <0>        -0.1181
     21 C20         3.0142   10.4463    0.9869 C.ar      1 <0>        -0.1174
     22 C21         2.8139    9.9170    2.2481 C.ar      1 <0>        -0.1168
     23 C22         2.8984    8.5515    2.4460 C.ar      1 <0>        -0.1134
     24 O2          2.0101    1.4535    1.9642 O.3       1 <0>        -0.3010
     25 C23         1.9479    0.0365    2.1378 C.3       1 <0>         0.0229
     26 H1         -2.8450    7.4864   -4.7402 H         1 <0>         0.0770
     27 H2         -3.2179    5.7893   -5.1264 H         1 <0>         0.0671
     28 H3         -4.5304    6.9152   -4.7048 H         1 <0>         0.0668
     29 H4         -3.6136    7.1252   -2.4105 H         1 <0>         0.0845
     30 H5         -2.3010    5.9992   -2.8320 H         1 <0>         0.0852
     31 H6         -3.9169    4.2096   -3.2571 H         1 <0>         0.1313
     32 H7         -5.2737    5.3287   -2.9831 H         1 <0>         0.1305
     33 H8         -5.4991    3.1844   -1.5077 H         1 <0>         0.1315
     34 H9         -5.1838    3.6496    0.1812 H         1 <0>         0.1312
     35 H10        -6.4578    5.7450   -0.1508 H         1 <0>         0.0856
     36 H11        -6.7599    5.2984   -1.8471 H         1 <0>         0.0846
     37 H12        -8.7022    4.7248   -0.4165 H         1 <0>         0.0771
     38 H13        -7.9556    3.2595   -1.0975 H         1 <0>         0.0668
     39 H14        -7.6536    3.7061    0.5989 H         1 <0>         0.0672
     40 H15        -2.0931    4.6726   -1.3345 H         1 <0>         0.1301
     41 H16        -2.9488    3.1120   -1.3076 H         1 <0>         0.1334
     42 H17        -3.6355    3.5290    1.0383 H         1 <0>         0.0954
     43 H18        -2.7798    5.0896    1.0114 H         1 <0>         0.0930
     44 H19        -2.4052    1.4376    1.0329 H         1 <0>         0.1284
     45 H20        -0.3119    0.2901    1.6319 H         1 <0>         0.1419
     46 H21        -0.3559    5.1773    0.9775 H         1 <0>         0.1357
     47 H22         1.5538    5.7944    0.3791 H         1 <0>         0.0617
     48 H23         1.1928    6.0225    2.1071 H         1 <0>         0.0639
     49 H24         3.6201    6.0275    2.6136 H         1 <0>         0.0874
     50 H25         3.9811    5.7994    0.8856 H         1 <0>         0.0868
     51 H26         3.6168    7.5923   -0.7070 H         1 <0>         0.1224
     52 H27         3.4556   10.0237   -1.0617 H         1 <0>         0.1244
     53 H28         2.9475   11.5131    0.8322 H         1 <0>         0.1245
     54 H29         2.5910   10.5703    3.0788 H         1 <0>         0.1252
     55 H30         2.7419    8.1380    3.4313 H         1 <0>         0.1235
     56 H31         2.9374   -0.3419    2.3945 H         1 <0>         0.1076
     57 H32         1.2488   -0.2010    2.9396 H         1 <0>         0.0589
     58 H33         1.6101   -0.4285    1.2116 H         1 <0>         0.0581
     59 N1         -4.1889    4.8327   -1.2476 N.4       1 <0>        -0.3973
     60 H34        -4.2103    5.7309   -0.7506 H         1 <0>         0.4251
@<TRIPOS>BOND
     1    1    2 1
     2    1   26 1
     3    1   27 1
     4    1   28 1
     5    2    3 1
     6    2   29 1
     7    2   30 1
     8    3   31 1
     9    3   32 1
    10    3   59 1
    11    4    5 1
    12    4   33 1
    13    4   34 1
    14    4   59 1
    15    5    6 1
    16    5   35 1
    17    5   36 1
    18    6   37 1
    19    6   38 1
    20    6   39 1
    21    7    8 1
    22    7   40 1
    23    7   41 1
    24    7   59 1
    25    8    9 1
    26    8   42 1
    27    8   43 1
    28    9   14 ar
    29    9   10 ar
    30   10   11 ar
    31   10   44 1
    32   11   12 ar
    33   11   45 1
    34   12   13 ar
    35   12   24 1
    36   13   14 ar
    37   13   15 1
    38   14   46 1
    39   15   16 1
    40   16   17 1
    41   16   47 1
    42   16   48 1
    43   17   18 1
    44   17   49 1
    45   17   50 1
    46   18   23 ar
    47   18   19 ar
    48   19   20 ar
    49   19   51 1
    50   20   21 ar
    51   20   52 1
    52   21   22 ar
    53   21   53 1
    54   22   23 ar
    55   22   54 1
    56   23   55 1
    57   24   25 1
    58   25   56 1
    59   25   57 1
    60   25   58 1
    61   59   60 1
@<TRIPOS>MOLECULE
ZINC00359757
   45    47     0     0     0
SMALL
USER_CHARGES

@<TRIPOS>ATOM
      1 C1         -0.0166    1.3781    0.0209 C.ar      1 <0>        -0.1100
      2 C2          1.1712    2.0853    0.0286 C.ar      1 <0>        -0.1129
      3 C3          2.3775    1.4105    0.0150 C.ar      1 <0>        -0.1099
      4 C4          2.3962    0.0284   -0.0059 C.ar      1 <0>        -0.0968
      5 C5          1.2085   -0.6788   -0.0127 C.ar      1 <0>        -0.1164
      6 C6          0.0021   -0.0040   -0.0005 C.ar      1 <0>        -0.1144
      7 C7          3.7113   -0.7072   -0.0218 C.3       1 <0>        -0.0531
      8 C8          3.7971   -1.5757   -1.2802 C.3       1 <0>        -0.1373
      9 C9          5.0987   -2.3798   -1.2505 C.3       1 <0>        -0.0148
     10 N1          5.1211   -3.2377   -0.0597 N.4       1 <0>        -0.3775
     11 C10         5.1115   -2.4087    1.1516 C.3       1 <0>        -0.0096
     12 C11         3.8104   -1.6057    1.2144 C.3       1 <0>        -0.1387
     13 C12         6.3355   -4.0641   -0.0761 C.3       1 <0>         0.0362
     14 H1          6.4046   -4.6269    0.8548 H         1 <0>         0.1424
     15 C13         7.5636   -3.1630   -0.2197 C.3       1 <0>        -0.1415
     16 C14         8.8285   -4.0237   -0.2368 C.3       1 <0>        -0.1204
     17 C15         8.7681   -4.9955   -1.4170 C.3       1 <0>        -0.1286
     18 C16         7.5400   -5.8966   -1.2734 C.3       1 <0>        -0.1509
     19 C17         6.2752   -5.0359   -1.2563 C.3       1 <0>         0.0885
     20 H2          6.2061   -4.4731   -2.1872 H         1 <0>         0.0791
     21 O1          5.1281   -5.8774   -1.1222 O.3       1 <0>        -0.5751
     22 H3         -0.9590    1.9052    0.0361 H         1 <0>         0.1276
     23 H4          1.1566    3.1651    0.0449 H         1 <0>         0.1278
     24 H5          3.3054    1.9631    0.0203 H         1 <0>         0.1235
     25 H6          1.2230   -1.7586   -0.0294 H         1 <0>         0.1179
     26 H7         -0.9258   -0.5565   -0.0062 H         1 <0>         0.1264
     27 H8          4.5310    0.0113   -0.0167 H         1 <0>         0.0954
     28 H9          2.9480   -2.2585   -1.3098 H         1 <0>         0.0900
     29 H10         3.7833   -0.9381   -2.1641 H         1 <0>         0.1134
     30 H11         5.1631   -2.9991   -2.1452 H         1 <0>         0.1288
     31 H12         5.9471   -1.6961   -1.2212 H         1 <0>         0.1313
     32 H13         5.1853   -3.0494    2.0303 H         1 <0>         0.1312
     33 H14         5.9596   -1.7244    1.1297 H         1 <0>         0.1297
     34 H15         3.8060   -0.9896    2.1135 H         1 <0>         0.1145
     35 H16         2.9616   -2.2892    1.2366 H         1 <0>         0.0901
     36 H17         7.4945   -2.6002   -1.1506 H         1 <0>         0.0904
     37 H18         7.6066   -2.4707    0.6211 H         1 <0>         0.0943
     38 H19         9.7034   -3.3817   -0.3391 H         1 <0>         0.0885
     39 H20         8.8976   -4.5865    0.6941 H         1 <0>         0.0770
     40 H21         8.6990   -4.4327   -2.3479 H         1 <0>         0.0718
     41 H22         9.6692   -5.6087   -1.4292 H         1 <0>         0.0841
     42 H23         7.4970   -6.5889   -2.1142 H         1 <0>         0.0873
     43 H24         7.6091   -6.4594   -0.3425 H         1 <0>         0.0837
     44 H25         5.0261   -6.5203   -1.8374 H         1 <0>         0.4073
     45 H26         4.3091   -3.8366   -0.0626 H         1 <0>         0.4297
@<TRIPOS>BOND
     1    1    6 ar
     2    1    2 ar
     3    1   22 1
     4    2    3 ar
     5    2   23 1
     6    3    4 ar
     7    3   24 1
     8    4    5 ar
     9    4    7 1
    10    5    6 ar
    11    5   25 1
    12    6   26 1
    13    7   12 1
    14    7    8 1
    15    7   27 1
    16    8    9 1
    17    8   28 1
    18    8   29 1
    19    9   10 1
    20    9   30 1
    21    9   31 1
    22   10   11 1
    23   10   13 1
    24   10   45 1
    25   11   12 1
    26   11   32 1
    27   11   33 1
    28   12   34 1
    29   12   35 1
    30   13   14 1
    31   13   19 1
    32   13   15 1
    33   15   16 1
    34   15   36 1
    35   15   37 1
    36   16   17 1
    37   16   38 1
    38   16   39 1
    39   17   18 1
    40   17   40 1
    41   17   41 1
    42   18   19 1
    43   18   42 1
    44   18   43 1
    45   19   20 1
    46   19   21 1
    47   21   44 1
@<TRIPOS>MOLECULE
ZINC03080604
   47    50     0     0     0
SMALL
USER_CHARGES

@<TRIPOS>ATOM
      1 C1         -0.0133    1.3671   -0.0142 C.ar      1 <0>        -0.1014
      2 C2          1.1712    2.0798   -0.0092 C.ar      1 <0>        -0.1194
      3 C3          2.3807    1.4103   -0.0164 C.ar      1 <0>        -0.0863
      4 C4          2.4056    0.0283   -0.0280 C.ar      1 <0>        -0.1297
      5 C5          1.2211   -0.6844   -0.0320 C.ar      1 <0>        -0.0915
      6 C6          0.0117   -0.0149   -0.0263 C.ar      1 <0>        -0.1216
      7 C7          3.7241   -0.7015   -0.0368 C.3       1 <0>         0.3624
      8 O1          4.7136    0.0833    0.6417 O.3       1 <0>        -0.3473
      9 C8          5.1797   -0.6921    1.7644 C.3       1 <0>         0.0194
     10 C9          4.0259   -1.6990    1.9982 C.3       1 <0>         0.0219
     11 H1          3.2283   -1.2482    2.5889 H         1 <0>         0.1343
     12 O2          3.5842   -1.9597    0.6442 O.3       1 <0>        -0.3632
     13 C10         4.5406   -2.9772    2.6631 C.3       1 <0>         0.0436
     14 H2          5.0001   -2.7289    3.6198 H         1 <0>         0.1566
     15 C11         3.3720   -3.9379    2.8932 C.3       1 <0>        -0.1387
     16 C12         3.8919   -5.2153    3.5589 C.3       1 <0>        -0.1379
     17 C13         4.9837   -5.8299    2.6784 C.3       1 <0>        -0.1487
     18 C14         6.0926   -4.7992    2.4562 C.3       1 <0>        -0.0073
     19 N1          5.5369   -3.6135    1.7930 N.4       1 <0>        -0.5061
     20 C15         4.1604   -0.9414   -1.4591 C.ar      1 <0>        -0.1119
     21 C16         3.7760   -2.0963   -2.1146 C.ar      1 <0>        -0.0973
     22 C17         4.1763   -2.3163   -3.4193 C.ar      1 <0>        -0.1214
     23 C18         4.9605   -1.3814   -4.0687 C.ar      1 <0>        -0.1023
     24 C19         5.3441   -0.2261   -3.4136 C.ar      1 <0>        -0.1172
     25 C20         4.9403   -0.0041   -2.1103 C.ar      1 <0>        -0.0860
     26 H3         -0.9581    1.8901   -0.0041 H         1 <0>         0.1287
     27 H4          1.1518    3.1596   -0.0001 H         1 <0>         0.1295
     28 H5          3.3061    1.9671   -0.0132 H         1 <0>         0.1282
     29 H6          1.2406   -1.7642   -0.0418 H         1 <0>         0.1247
     30 H7         -0.9137   -0.5717   -0.0299 H         1 <0>         0.1281
     31 H8          6.1028   -1.2152    1.5146 H         1 <0>         0.0674
     32 H9          5.3202   -0.0572    2.6392 H         1 <0>         0.1249
     33 H10         2.6338   -3.4645    3.5407 H         1 <0>         0.1143
     34 H11         2.9119   -4.1871    1.9370 H         1 <0>         0.0970
     35 H12         4.3061   -4.9735    4.5377 H         1 <0>         0.0837
     36 H13         3.0732   -5.9257    3.6736 H         1 <0>         0.0980
     37 H14         5.3976   -6.7091    3.1723 H         1 <0>         0.1147
     38 H15         4.5571   -6.1184    1.7178 H         1 <0>         0.0896
     39 H16         6.5187   -4.5116    3.4174 H         1 <0>         0.1325
     40 H17         6.8717   -5.2337    1.8299 H         1 <0>         0.1359
     41 H18         5.0989   -3.8879    0.9264 H         1 <0>         0.4331
     42 H19         3.1634   -2.8267   -1.6072 H         1 <0>         0.1246
     43 H20         3.8766   -3.2189   -3.9311 H         1 <0>         0.1285
     44 H21         5.2738   -1.5537   -5.0878 H         1 <0>         0.1292
     45 H22         5.9571    0.5041   -3.9209 H         1 <0>         0.1306
     46 H23         5.2369    0.9002   -1.5997 H         1 <0>         0.1296
     47 H24         6.2799   -2.9589    1.5994 H         1 <0>         0.4243
@<TRIPOS>BOND
     1    1    6 ar
     2    1    2 ar
     3    1   26 1
     4    2    3 ar
     5    2   27 1
     6    3    4 ar
     7    3   28 1
     8    4    5 ar
     9    4    7 1
    10    5    6 ar
    11    5   29 1
    12    6   30 1
    13    7   12 1
    14    7    8 1
    15    7   20 1
    16    8    9 1
    17    9   10 1
    18    9   31 1
    19    9   32 1
    20   10   11 1
    21   10   12 1
    22   10   13 1
    23   13   14 1
    24   13   19 1
    25   13   15 1
    26   15   16 1
    27   15   33 1
    28   15   34 1
    29   16   17 1
    30   16   35 1
    31   16   36 1
    32   17   18 1
    33   17   37 1
    34   17   38 1
    35   18   19 1
    36   18   39 1
    37   18   40 1
    38   19   41 1
    39   19   47 1
    40   20   25 ar
    41   20   21 ar
    42   21   22 ar
    43   21   42 1
    44   22   23 ar
    45   22   43 1
    46   23   24 ar
    47   23   44 1
    48   24   25 ar
    49   24   45 1
    50   25   46 1
@<TRIPOS>MOLECULE
ZINC03080605
   47    50     0     0     0
SMALL
USER_CHARGES

@<TRIPOS>ATOM
      1 C1         -0.0167    1.3781    0.0096 C.ar      1 <0>        -0.1011
      2 C2          1.1709    2.0855    0.0021 C.ar      1 <0>        -0.1216
      3 C3          2.3773    1.4107   -0.0130 C.ar      1 <0>        -0.0877
      4 C4          2.3960    0.0285   -0.0201 C.ar      1 <0>        -0.1115
      5 C5          1.2084   -0.6789   -0.0117 C.ar      1 <0>        -0.0870
      6 C6          0.0021   -0.0041    0.0020 C.ar      1 <0>        -0.1193
      7 C7          3.7112   -0.7071   -0.0376 C.3       1 <0>         0.3562
      8 O1          3.5669   -1.9703    0.6333 O.3       1 <0>        -0.3367
      9 C8          4.8291   -2.1750    1.3125 C.3       1 <0>         0.0124
     10 C9          5.1932   -0.7318    1.7419 C.3       1 <0>         0.0281
     11 H1          4.6846   -0.4657    2.6685 H         1 <0>         0.1371
     12 O2          4.7056    0.0676    0.6453 O.3       1 <0>        -0.3647
     13 C10         6.7078   -0.5792    1.8955 C.3       1 <0>         0.0354
     14 H2          7.0674   -1.2740    2.6544 H         1 <0>         0.1564
     15 C11         7.0349    0.8539    2.3209 C.3       1 <0>        -0.1377
     16 C12         8.5515    1.0016    2.4736 C.3       1 <0>        -0.1382
     17 C13         9.2271    0.6196    1.1535 C.3       1 <0>        -0.1485
     18 C14         8.8188   -0.8048    0.7713 C.3       1 <0>        -0.0078
     19 N1          7.3610   -0.8736    0.6144 N.4       1 <0>        -0.5076
     20 C15         4.1418   -0.9405   -1.4628 C.ar      1 <0>        -0.1304
     21 C16         3.7501   -2.0896   -2.1238 C.ar      1 <0>        -0.0884
     22 C17         4.1451   -2.3037   -3.4311 C.ar      1 <0>        -0.1135
     23 C18         4.9314   -1.3684   -4.0775 C.ar      1 <0>        -0.1023
     24 C19         5.3223   -0.2189   -3.4168 C.ar      1 <0>        -0.1209
     25 C20         4.9238   -0.0028   -2.1109 C.ar      1 <0>        -0.1107
     26 H3         -0.9591    1.9053    0.0259 H         1 <0>         0.1290
     27 H4          1.1563    3.1654    0.0076 H         1 <0>         0.1287
     28 H5          3.3051    1.9634   -0.0196 H         1 <0>         0.1248
     29 H6          1.2231   -1.7588   -0.0179 H         1 <0>         0.1274
     30 H7         -0.9258   -0.5567    0.0082 H         1 <0>         0.1299
     31 H8          4.7043   -2.8209    2.1816 H         1 <0>         0.1350
     32 H9          5.5775   -2.5800    0.6314 H         1 <0>         0.0667
     33 H10         6.6759    1.5496    1.5625 H         1 <0>         0.0967
     34 H11         6.5504    1.0705    3.2729 H         1 <0>         0.1148
     35 H12         8.7939    2.0350    2.7214 H         1 <0>         0.0980
     36 H13         8.9038    0.3430    3.2674 H         1 <0>         0.0838
     37 H14         8.9137    1.3105    0.3708 H         1 <0>         0.0893
     38 H15        10.3097    0.6687    1.2711 H         1 <0>         0.1151
     39 H16         9.2983   -1.0800   -0.1681 H         1 <0>         0.1355
     40 H17         9.1330   -1.4948    1.5544 H         1 <0>         0.1332
     41 H18         7.1003   -1.7996    0.3101 H         1 <0>         0.4226
     42 H19         3.1358   -2.8203   -1.6187 H         1 <0>         0.1315
     43 H20         3.8397   -3.2018   -3.9473 H         1 <0>         0.1319
     44 H21         5.2406   -1.5360   -5.0986 H         1 <0>         0.1303
     45 H22         5.9370    0.5117   -3.9217 H         1 <0>         0.1296
     46 H23         5.2261    0.8971   -1.5959 H         1 <0>         0.1258
     47 H24         7.0653   -0.1994   -0.0756 H         1 <0>         0.4304
@<TRIPOS>BOND
     1    1    6 ar
     2    1    2 ar
     3    1   26 1
     4    2    3 ar
     5    2   27 1
     6    3    4 ar
     7    3   28 1
     8    4    5 ar
     9    4    7 1
    10    5    6 ar
    11    5   29 1
    12    6   30 1
    13    7   12 1
    14    7    8 1
    15    7   20 1
    16    8    9 1
    17    9   10 1
    18    9   31 1
    19    9   32 1
    20   10   11 1
    21   10   12 1
    22   10   13 1
    23   13   14 1
    24   13   19 1
    25   13   15 1
    26   15   16 1
    27   15   33 1
    28   15   34 1
    29   16   17 1
    30   16   35 1
    31   16   36 1
    32   17   18 1
    33   17   37 1
    34   17   38 1
    35   18   19 1
    36   18   39 1
    37   18   40 1
    38   19   41 1
    39   19   47 1
    40   20   25 ar
    41   20   21 ar
    42   21   22 ar
    43   21   42 1
    44   22   23 ar
    45   22   43 1
    46   23   24 ar
    47   23   44 1
    48   24   25 ar
    49   24   45 1
    50   25   46 1
@<TRIPOS>MOLECULE
ZINC08143662
   47    50     0     0     0
SMALL
USER_CHARGES
2-(2,2-diphenyl-1,3-dioxolan-4-yl)piperidine
@<TRIPOS>ATOM
      1 C1         -7.3490    5.8100   -0.5095 C.ar      1 <0>        -0.1031
      2 C2         -6.8589    6.5981    0.5149 C.ar      1 <0>        -0.1192
      3 C3         -5.5079    6.8831    0.5819 C.ar      1 <0>        -0.0903
      4 C4         -4.6470    6.3795   -0.3752 C.ar      1 <0>        -0.1280
      5 C5         -5.1379    5.5957   -1.4026 C.ar      1 <0>        -0.0914
      6 C6         -6.4883    5.3071   -1.4672 C.ar      1 <0>        -0.1217
      7 C7         -3.1742    6.6901   -0.3021 C.3       1 <0>         0.3599
      8 O1         -2.7826    6.8537    1.0713 O.3       1 <0>        -0.3380
      9 C8         -2.2710    5.5584    1.4672 C.3       1 <0>         0.0010
     10 C9         -1.5715    5.0859    0.1682 C.3       1 <0>         0.0312
     11 H1         -0.5691    5.5079    0.0951 H         1 <0>         0.1138
     12 O2         -2.4249    5.6079   -0.8703 O.3       1 <0>        -0.3412
     13 C10        -1.5186    3.5580    0.1076 C.3       1 <0>         0.0325
     14 H2         -2.5327    3.1587    0.1266 H         1 <0>         0.1483
     15 C11        -0.8234    3.1228   -1.1844 C.3       1 <0>        -0.1346
     16 C12        -0.7548    1.5938   -1.2312 C.3       1 <0>        -0.1386
     17 C13        -0.0127    1.0858    0.0080 C.3       1 <0>        -0.1486
     18 C14        -0.7306    1.5801    1.2659 C.3       1 <0>        -0.0001
     19 C15        -2.8889    7.9585   -1.0644 C.ar      1 <0>        -0.1105
     20 C16        -2.9556    9.1807   -0.4221 C.ar      1 <0>        -0.0876
     21 C17        -2.6897   10.3438   -1.1202 C.ar      1 <0>        -0.1199
     22 C18        -2.3660   10.2853   -2.4629 C.ar      1 <0>        -0.1025
     23 C19        -2.3044    9.0635   -3.1064 C.ar      1 <0>        -0.1213
     24 C20        -2.5661    7.9001   -2.4073 C.ar      1 <0>        -0.0885
     25 H3         -8.4044    5.5867   -0.5615 H         1 <0>         0.1283
     26 H4         -7.5314    6.9910    1.2631 H         1 <0>         0.1293
     27 H5         -5.1250    7.4989    1.3823 H         1 <0>         0.1279
     28 H6         -4.4659    5.2059   -2.1529 H         1 <0>         0.1258
     29 H7         -6.8712    4.6911   -2.2674 H         1 <0>         0.1280
     30 H8         -3.0833    4.8848    1.7402 H         1 <0>         0.0877
     31 H9         -1.5550    5.6539    2.2834 H         1 <0>         0.1189
     32 H10         0.1861    3.5332   -1.2105 H         1 <0>         0.0905
     33 H11        -1.3878    3.4882   -2.0423 H         1 <0>         0.1184
     34 H12        -0.2219    1.2804   -2.1289 H         1 <0>         0.0973
     35 H13        -1.7649    1.1842   -1.2444 H         1 <0>         0.0828
     36 H14         0.0021   -0.0041    0.0020 H         1 <0>         0.1145
     37 H15         1.0097    1.4637    0.0003 H         1 <0>         0.0897
     38 H16        -1.7483    1.1900    1.2802 H         1 <0>         0.1316
     39 H17        -0.1959    1.2321    2.1497 H         1 <0>         0.1370
     40 H18        -3.2122    9.2267    0.6260 H         1 <0>         0.1270
     41 H19        -2.7375   11.2984   -0.6174 H         1 <0>         0.1294
     42 H20        -2.1609   11.1942   -3.0090 H         1 <0>         0.1286
     43 H21        -2.0515    9.0178   -4.1554 H         1 <0>         0.1287
     44 H22        -2.5180    6.9455   -2.9101 H         1 <0>         0.1258
     45 N1         -0.7649    3.0552    1.2721 N.4       1 <0>        -0.5134
     46 H23        -1.2188    3.3793    2.1342 H         1 <0>         0.4315
     47 H24         0.1956    3.4160    1.2346 H         1 <0>         0.4331
@<TRIPOS>BOND
     1    1    6 ar
     2    1    2 ar
     3    1   25 1
     4    2    3 ar
     5    2   26 1
     6    3    4 ar
     7    3   27 1
     8    4    5 ar
     9    4    7 1
    10    5    6 ar
    11    5   28 1
    12    6   29 1
    13    7   12 1
    14    7    8 1
    15    7   19 1
    16    8    9 1
    17    9   10 1
    18    9   30 1
    19    9   31 1
    20   10   11 1
    21   10   12 1
    22   10   13 1
    23   13   14 1
    24   13   15 1
    25   13   45 1
    26   15   16 1
    27   15   32 1
    28   15   33 1
    29   16   17 1
    30   16   34 1
    31   16   35 1
    32   17   18 1
    33   17   36 1
    34   17   37 1
    35   18   38 1
    36   18   39 1
    37   18   45 1
    38   19   24 ar
    39   19   20 ar
    40   20   21 ar
    41   20   40 1
    42   21   22 ar
    43   21   41 1
    44   22   23 ar
    45   22   42 1
    46   23   24 ar
    47   23   43 1
    48   24   44 1
    49   45   46 1
    50   45   47 1
@<TRIPOS>MOLECULE
ZINC08659933
   47    50     0     0     0
SMALL
USER_CHARGES
2-(2,2-diphenyl-1,3-dioxolan-4-yl)piperidine
@<TRIPOS>ATOM
      1 C1         -7.0540    6.1448   -0.9972 C.ar      1 <0>        -0.1032
      2 C2         -6.2597    5.4470   -1.8877 C.ar      1 <0>        -0.1217
      3 C3         -6.0375    4.0952   -1.7032 C.ar      1 <0>        -0.0912
      4 C4         -6.6097    3.4411   -0.6282 C.ar      1 <0>        -0.1278
      5 C5         -7.4083    4.1378    0.2594 C.ar      1 <0>        -0.0903
      6 C6         -7.6262    5.4907    0.0778 C.ar      1 <0>        -0.1193
      7 C7         -6.3678    1.9673   -0.4273 C.3       1 <0>         0.3599
      8 O1         -6.4157    1.6568    0.9755 O.3       1 <0>        -0.3389
      9 C8         -5.0342    1.6846    1.4082 C.3       1 <0>         0.0030
     10 C9         -4.3056    1.1006    0.1721 C.3       1 <0>         0.0311
     11 H1         -4.3340    0.0110    0.1840 H         1 <0>         0.1126
     12 O2         -5.0727    1.6182   -0.9336 O.3       1 <0>        -0.3412
     13 C10        -2.8612    1.6013    0.1094 C.3       1 <0>         0.0325
     14 H2         -2.8535    2.6911    0.1271 H         1 <0>         0.1479
     15 C11        -2.2060    1.1076   -1.1825 C.3       1 <0>        -0.1342
     16 C12        -0.7548    1.5938   -1.2312 C.3       1 <0>        -0.1386
     17 C13        -0.0127    1.0858    0.0080 C.3       1 <0>        -0.1487
     18 C14        -0.7306    1.5801    1.2659 C.3       1 <0>         0.0002
     19 C15        -7.4257    1.1797   -1.1565 C.ar      1 <0>        -0.1104
     20 C16        -7.2271    0.8100   -2.4736 C.ar      1 <0>        -0.0885
     21 C17        -8.1954    0.0834   -3.1410 C.ar      1 <0>        -0.1214
     22 C18        -9.3667   -0.2644   -2.4946 C.ar      1 <0>        -0.1026
     23 C19        -9.5675    0.1099   -1.1791 C.ar      1 <0>        -0.1199
     24 C20        -8.5970    0.8319   -0.5100 C.ar      1 <0>        -0.0877
     25 H3         -7.2279    7.2009   -1.1416 H         1 <0>         0.1283
     26 H4         -5.8130    5.9580   -2.7278 H         1 <0>         0.1279
     27 H5         -5.4172    3.5500   -2.3992 H         1 <0>         0.1256
     28 H6         -7.8589    3.6258    1.0968 H         1 <0>         0.1280
     29 H7         -8.2471    6.0358    0.7733 H         1 <0>         0.1292
     30 H8         -4.8866    1.0517    2.2832 H         1 <0>         0.1187
     31 H9         -4.7081    2.7054    1.6072 H         1 <0>         0.0884
     32 H10        -2.7508    1.5016   -2.0404 H         1 <0>         0.1187
     33 H11        -2.2257    0.0180   -1.2072 H         1 <0>         0.0904
     34 H12        -0.7361    2.6836   -1.2458 H         1 <0>         0.0826
     35 H13        -0.2708    1.2092   -2.1289 H         1 <0>         0.0972
     36 H14         0.0021   -0.0041    0.0020 H         1 <0>         0.0896
     37 H15         1.0097    1.4637    0.0003 H         1 <0>         0.1144
     38 H16        -0.2123    1.2083    2.1497 H         1 <0>         0.1369
     39 H17        -0.7329    2.6701    1.2781 H         1 <0>         0.1316
     40 H18        -6.3139    1.0855   -2.9800 H         1 <0>         0.1256
     41 H19        -8.0386   -0.2087   -4.1689 H         1 <0>         0.1286
     42 H20       -10.1251   -0.8282   -3.0174 H         1 <0>         0.1286
     43 H21       -10.4828   -0.1616   -0.6741 H         1 <0>         0.1294
     44 H22        -8.7541    1.1246    0.5176 H         1 <0>         0.1272
     45 N1         -2.1197    1.0805    1.2739 N.4       1 <0>        -0.5134
     46 H23        -2.1103    0.0544    1.2374 H         1 <0>         0.4331
     47 H24        -2.5848    1.3880    2.1360 H         1 <0>         0.4317
@<TRIPOS>BOND
     1    1    6 ar
     2    1    2 ar
     3    1   25 1
     4    2    3 ar
     5    2   26 1
     6    3    4 ar
     7    3   27 1
     8    4    5 ar
     9    4    7 1
    10    5    6 ar
    11    5   28 1
    12    6   29 1
    13    7   12 1
    14    7    8 1
    15    7   19 1
    16    8    9 1
    17    9   10 1
    18    9   30 1
    19    9   31 1
    20   10   11 1
    21   10   12 1
    22   10   13 1
    23   13   14 1
    24   13   15 1
    25   13   45 1
    26   15   16 1
    27   15   32 1
    28   15   33 1
    29   16   17 1
    30   16   34 1
    31   16   35 1
    32   17   18 1
    33   17   36 1
    34   17   37 1
    35   18   38 1
    36   18   39 1
    37   18   45 1
    38   19   24 ar
    39   19   20 ar
    40   20   21 ar
    41   20   40 1
    42   21   22 ar
    43   21   41 1
    44   22   23 ar
    45   22   42 1
    46   23   24 ar
    47   23   43 1
    48   24   44 1
    49   45   46 1
    50   45   47 1
@<TRIPOS>MOLECULE
ZINC19359858
   52    54     0     0     0
SMALL
USER_CHARGES
1-(3-phenylpropyl)-4-(p-tolylmethyl)piperazine
@<TRIPOS>ATOM
      1 C1         -1.8580   -1.9338   -9.3500 C.3       1 <0>        -0.1258
      2 C2         -0.9429   -2.0801   -8.1616 C.ar      1 <0>        -0.0712
      3 C3         -0.0996   -1.0438   -7.8070 C.ar      1 <0>        -0.1201
      4 C4          0.7398   -1.1779   -6.7169 C.ar      1 <0>        -0.1139
      5 C5          0.7352   -2.3480   -5.9808 C.ar      1 <0>        -0.1032
      6 C6         -0.1047   -3.3861   -6.3383 C.ar      1 <0>        -0.0899
      7 C7         -0.9472   -3.2503   -7.4258 C.ar      1 <0>        -0.1194
      8 C8          1.6502   -2.4942   -4.7924 C.3       1 <0>         0.0975
      9 N1          0.9626   -2.0205   -3.5838 N.3       1 <0>        -0.5339
     10 C9          1.7254   -2.3632   -2.3754 C.3       1 <0>         0.0242
     11 C10         0.9394   -1.9244   -1.1376 C.3       1 <0>         0.0015
     12 N2          0.6897   -0.4778   -1.2066 N.4       1 <0>        -0.4006
     13 C11        -0.0731   -0.1351   -2.4150 C.3       1 <0>        -0.0021
     14 C12         0.7128   -0.5739   -3.6528 C.3       1 <0>         0.0199
     15 C13         0.0021   -0.0041    0.0020 C.3       1 <0>        -0.0070
     16 C14        -0.0187    1.5258    0.0104 C.3       1 <0>        -0.1434
     17 C15        -0.7348    2.0192    1.2692 C.3       1 <0>        -0.0742
     18 C16        -0.7552    3.5260    1.2775 C.ar      1 <0>        -0.1002
     19 C17         0.2749    4.2280    1.8750 C.ar      1 <0>        -0.1157
     20 C18         0.2586    5.6102    1.8784 C.ar      1 <0>        -0.1155
     21 C19        -0.7929    6.2904    1.2930 C.ar      1 <0>        -0.1134
     22 C20        -1.8259    5.5884    0.7006 C.ar      1 <0>        -0.1154
     23 C21        -1.8070    4.2062    0.6926 C.ar      1 <0>        -0.1159
     24 H1         -1.7133   -0.9425   -9.8044 H         1 <0>         0.0685
     25 H2         -2.9031   -2.0383   -9.0231 H         1 <0>         0.0741
     26 H3         -1.6256   -2.7138  -10.0900 H         1 <0>         0.0754
     27 H4         -0.0962   -0.1295   -8.3818 H         1 <0>         0.1248
     28 H5          1.3989   -0.3684   -6.4401 H         1 <0>         0.1174
     29 H6         -0.1052   -4.3019   -5.7659 H         1 <0>         0.1234
     30 H7         -1.6064   -4.0598   -7.7027 H         1 <0>         0.1260
     31 H8          1.9233   -3.5525   -4.6679 H         1 <0>         0.0967
     32 H9          2.5599   -1.8974   -4.9544 H         1 <0>         0.0551
     33 H10         1.8886   -3.4505   -2.3409 H         1 <0>         0.1242
     34 H11         2.6966   -1.8471   -2.3962 H         1 <0>         0.0610
     35 H12        -0.0197   -2.4618   -1.1028 H         1 <0>         0.1352
     36 H13         1.5215   -2.1543   -0.2330 H         1 <0>         0.1363
     37 H14        -1.0443   -0.6512   -2.3942 H         1 <0>         0.1349
     38 H15        -0.2363    0.9522   -2.4495 H         1 <0>         0.1357
     39 H16         1.6724   -0.0374   -3.6883 H         1 <0>         0.0601
     40 H17         0.1311   -0.3450   -4.5579 H         1 <0>         0.1266
     41 H18        -1.0299   -0.3849    0.0098 H         1 <0>         0.1290
     42 H19         0.5341   -0.3685    0.8932 H         1 <0>         0.1324
     43 H20         1.0133    1.9066    0.0026 H         1 <0>         0.0882
     44 H21        -0.5507    1.8902   -0.8808 H         1 <0>         0.0879
     45 H22        -1.7668    1.6385    1.2770 H         1 <0>         0.0832
     46 H23        -0.2028    1.6548    2.1604 H         1 <0>         0.0835
     47 H24         1.0944    3.6965    2.3359 H         1 <0>         0.1212
     48 H25         1.0654    6.1587    2.3416 H         1 <0>         0.1260
     49 H26        -0.8075    7.3703    1.2990 H         1 <0>         0.1265
     50 H27        -2.6476    6.1198    0.2436 H         1 <0>         0.1260
     51 H28        -2.6140    3.6578    0.2297 H         1 <0>         0.1211
     52 H29         1.6624    0.0327   -1.2627 H         1 <0>         0.4371
@<TRIPOS>BOND
     1    1    2 1
     2    1   24 1
     3    1   25 1
     4    1   26 1
     5    2    7 ar
     6    2    3 ar
     7    3    4 ar
     8    3   27 1
     9    4    5 ar
    10    4   28 1
    11    5    6 ar
    12    5    8 1
    13    6    7 ar
    14    6   29 1
    15    7   30 1
    16    8    9 1
    17    8   31 1
    18    8   32 1
    19    9   14 1
    20    9   10 1
    21   10   11 1
    22   10   33 1
    23   10   34 1
    24   11   12 1
    25   11   35 1
    26   11   36 1
    27   12   13 1
    28   12   15 1
    29   12   52 1
    30   13   14 1
    31   13   37 1
    32   13   38 1
    33   14   39 1
    34   14   40 1
    35   15   16 1
    36   15   41 1
    37   15   42 1
    38   16   17 1
    39   16   43 1
    40   16   44 1
    41   17   18 1
    42   17   45 1
    43   17   46 1
    44   18   23 ar
    45   18   19 ar
    46   19   20 ar
    47   19   47 1
    48   20   21 ar
    49   20   48 1
    50   21   22 ar
    51   21   49 1
    52   22   23 ar
    53   22   50 1
    54   23   51 1
@<TRIPOS>MOLECULE
ZINC19359858
   52    54     0     0     0
SMALL
USER_CHARGES
1-(3-phenylpropyl)-4-(p-tolylmethyl)piperazine
@<TRIPOS>ATOM
      1 C1         -1.8580   -1.9338   -9.3500 C.3       1 <0>        -0.1342
      2 C2         -0.9429   -2.0801   -8.1616 C.ar      1 <0>        -0.0437
      3 C3         -0.0996   -1.0438   -7.8070 C.ar      1 <0>        -0.1177
      4 C4          0.7398   -1.1779   -6.7169 C.ar      1 <0>        -0.0908
      5 C5          0.7352   -2.3480   -5.9808 C.ar      1 <0>        -0.1691
      6 C6         -0.1047   -3.3861   -6.3383 C.ar      1 <0>        -0.0887
      7 C7         -0.9472   -3.2503   -7.4258 C.ar      1 <0>        -0.1181
      8 C8          1.6502   -2.4942   -4.7924 C.3       1 <0>         0.0488
      9 N1          0.9626   -2.0205   -3.5838 N.4       1 <0>        -0.3991
     10 C9          1.7254   -2.3632   -2.3754 C.3       1 <0>         0.0005
     11 C10         0.9394   -1.9244   -1.1376 C.3       1 <0>         0.0250
     12 N2          0.6897   -0.4778   -1.2066 N.3       1 <0>        -0.5387
     13 C11        -0.0731   -0.1351   -2.4150 C.3       1 <0>         0.0223
     14 C12         0.7128   -0.5739   -3.6528 C.3       1 <0>        -0.0029
     15 C13         0.0021   -0.0041    0.0020 C.3       1 <0>         0.0527
     16 C14        -0.0187    1.5258    0.0104 C.3       1 <0>        -0.1117
     17 C15        -0.7348    2.0192    1.2692 C.3       1 <0>        -0.0806
     18 C16        -0.7552    3.5260    1.2775 C.ar      1 <0>        -0.0886
     19 C17         0.2749    4.2280    1.8750 C.ar      1 <0>        -0.1167
     20 C18         0.2586    5.6102    1.8784 C.ar      1 <0>        -0.1160
     21 C19        -0.7929    6.2904    1.2930 C.ar      1 <0>        -0.1202
     22 C20        -1.8259    5.5884    0.7006 C.ar      1 <0>        -0.1171
     23 C21        -1.8070    4.2062    0.6926 C.ar      1 <0>        -0.1193
     24 H1         -1.7133   -0.9425   -9.8044 H         1 <0>         0.0744
     25 H2         -2.9031   -2.0383   -9.0231 H         1 <0>         0.0811
     26 H3         -1.6256   -2.7138  -10.0900 H         1 <0>         0.0822
     27 H4         -0.0962   -0.1295   -8.3818 H         1 <0>         0.1352
     28 H5          1.3989   -0.3684   -6.4401 H         1 <0>         0.1304
     29 H6         -0.1052   -4.3019   -5.7659 H         1 <0>         0.1308
     30 H7         -1.6064   -4.0598   -7.7027 H         1 <0>         0.1351
     31 H8          1.9233   -3.5525   -4.6679 H         1 <0>         0.1369
     32 H9          2.5599   -1.8974   -4.9544 H         1 <0>         0.1331
     33 H10         1.8886   -3.4505   -2.3409 H         1 <0>         0.1360
     34 H11         2.6966   -1.8471   -2.3962 H         1 <0>         0.1356
     35 H12        -0.0197   -2.4618   -1.1028 H         1 <0>         0.0600
     36 H13         1.5215   -2.1543   -0.2330 H         1 <0>         0.1238
     37 H14        -1.0443   -0.6512   -2.3942 H         1 <0>         0.0596
     38 H15        -0.2363    0.9522   -2.4495 H         1 <0>         0.1247
     39 H16         1.6724   -0.0374   -3.6883 H         1 <0>         0.1342
     40 H17         0.1311   -0.3450   -4.5579 H         1 <0>         0.1346
     41 H18        -1.0299   -0.3849    0.0098 H         1 <0>         0.0473
     42 H19         0.5341   -0.3685    0.8932 H         1 <0>         0.0900
     43 H20         1.0133    1.9066    0.0026 H         1 <0>         0.0779
     44 H21        -0.5507    1.8902   -0.8808 H         1 <0>         0.0646
     45 H22        -1.7668    1.6385    1.2770 H         1 <0>         0.0729
     46 H23        -0.2028    1.6548    2.1604 H         1 <0>         0.0764
     47 H24         1.0944    3.6965    2.3359 H         1 <0>         0.1210
     48 H25         1.0654    6.1587    2.3416 H         1 <0>         0.1239
     49 H26        -0.8075    7.3703    1.2990 H         1 <0>         0.1238
     50 H27        -2.6476    6.1198    0.2436 H         1 <0>         0.1231
     51 H28        -2.6140    3.6578    0.2297 H         1 <0>         0.1186
     52 H29        -0.0101   -2.5311   -3.5277 H         1 <0>         0.4364
@<TRIPOS>BOND
     1    1    2 1
     2    1   24 1
     3    1   25 1
     4    1   26 1
     5    2    7 ar
     6    2    3 ar
     7    3    4 ar
     8    3   27 1
     9    4    5 ar
    10    4   28 1
    11    5    6 ar
    12    5    8 1
    13    6    7 ar
    14    6   29 1
    15    7   30 1
    16    8    9 1
    17    8   31 1
    18    8   32 1
    19    9   14 1
    20    9   10 1
    21    9   52 1
    22   10   11 1
    23   10   33 1
    24   10   34 1
    25   11   12 1
    26   11   35 1
    27   11   36 1
    28   12   13 1
    29   12   15 1
    30   13   14 1
    31   13   37 1
    32   13   38 1
    33   14   39 1
    34   14   40 1
    35   15   16 1
    36   15   41 1
    37   15   42 1
    38   16   17 1
    39   16   43 1
    40   16   44 1
    41   17   18 1
    42   17   45 1
    43   17   46 1
    44   18   23 ar
    45   18   19 ar
    46   19   20 ar
    47   19   47 1
    48   20   21 ar
    49   20   48 1
    50   21   22 ar
    51   21   49 1
    52   22   23 ar
    53   22   50 1
    54   23   51 1
@<TRIPOS>MOLECULE
ZINC19359858
   51    53     0     0     0
SMALL
USER_CHARGES
1-(3-phenylpropyl)-4-(p-tolylmethyl)piperazine
@<TRIPOS>ATOM
      1 C1         -1.8580   -1.9338   -9.3500 C.3       1 <0>        -0.1188
      2 C2         -0.9429   -2.0801   -8.1616 C.ar      1 <0>        -0.0850
      3 C3         -0.0996   -1.0438   -7.8070 C.ar      1 <0>        -0.1213
      4 C4          0.7398   -1.1779   -6.7169 C.ar      1 <0>        -0.1106
      5 C5          0.7352   -2.3480   -5.9808 C.ar      1 <0>        -0.0840
      6 C6         -0.1047   -3.3861   -6.3383 C.ar      1 <0>        -0.0942
      7 C7         -0.9472   -3.2503   -7.4258 C.ar      1 <0>        -0.1221
      8 C8          1.6502   -2.4942   -4.7924 C.3       1 <0>         0.0932
      9 N1          0.9626   -2.0205   -3.5838 N.3       1 <0>        -0.5335
     10 C9          1.7254   -2.3632   -2.3754 C.3       1 <0>         0.0558
     11 C10         0.9394   -1.9244   -1.1376 C.3       1 <0>         0.0567
     12 N2          0.6897   -0.4778   -1.2066 N.3       1 <0>        -0.5396
     13 C11        -0.0731   -0.1351   -2.4150 C.3       1 <0>         0.0547
     14 C12         0.7128   -0.5739   -3.6528 C.3       1 <0>         0.0531
     15 C13         0.0021   -0.0041    0.0020 C.3       1 <0>         0.0547
     16 C14        -0.0187    1.5258    0.0104 C.3       1 <0>        -0.1095
     17 C15        -0.7348    2.0192    1.2692 C.3       1 <0>        -0.0815
     18 C16        -0.7552    3.5260    1.2775 C.ar      1 <0>        -0.0800
     19 C17         0.2749    4.2280    1.8750 C.ar      1 <0>        -0.1175
     20 C18         0.2586    5.6102    1.8784 C.ar      1 <0>        -0.1180
     21 C19        -0.7929    6.2904    1.2930 C.ar      1 <0>        -0.1257
     22 C20        -1.8259    5.5884    0.7006 C.ar      1 <0>        -0.1182
     23 C21        -1.8070    4.2062    0.6926 C.ar      1 <0>        -0.1188
     24 H1         -1.7133   -0.9425   -9.8044 H         1 <0>         0.0651
     25 H2         -2.9031   -2.0383   -9.0231 H         1 <0>         0.0699
     26 H3         -1.6256   -2.7138  -10.0900 H         1 <0>         0.0699
     27 H4         -0.0962   -0.1295   -8.3818 H         1 <0>         0.1208
     28 H5          1.3989   -0.3684   -6.4401 H         1 <0>         0.1181
     29 H6         -0.1052   -4.3019   -5.7659 H         1 <0>         0.1216
     30 H7         -1.6064   -4.0598   -7.7027 H         1 <0>         0.1211
     31 H8          1.9233   -3.5525   -4.6679 H         1 <0>         0.0842
     32 H9          2.5599   -1.8974   -4.9544 H         1 <0>         0.0442
     33 H10         1.8886   -3.4505   -2.3409 H         1 <0>         0.0811
     34 H11         2.6966   -1.8471   -2.3962 H         1 <0>         0.0437
     35 H12        -0.0197   -2.4618   -1.1028 H         1 <0>         0.0429
     36 H13         1.5215   -2.1543   -0.2330 H         1 <0>         0.0808
     37 H14        -1.0443   -0.6512   -2.3942 H         1 <0>         0.0418
     38 H15        -0.2363    0.9522   -2.4495 H         1 <0>         0.0821
     39 H16         1.6724   -0.0374   -3.6883 H         1 <0>         0.0417
     40 H17         0.1311   -0.3450   -4.5579 H         1 <0>         0.0842
     41 H18        -1.0299   -0.3849    0.0098 H         1 <0>         0.0351
     42 H19         0.5341   -0.3685    0.8932 H         1 <0>         0.0759
     43 H20         1.0133    1.9066    0.0026 H         1 <0>         0.0728
     44 H21        -0.5507    1.8902   -0.8808 H         1 <0>         0.0642
     45 H22        -1.7668    1.6385    1.2770 H         1 <0>         0.0717
     46 H23        -0.2028    1.6548    2.1604 H         1 <0>         0.0738
     47 H24         1.0944    3.6965    2.3359 H         1 <0>         0.1209
     48 H25         1.0654    6.1587    2.3416 H         1 <0>         0.1214
     49 H26        -0.8075    7.3703    1.2990 H         1 <0>         0.1207
     50 H27        -2.6476    6.1198    0.2436 H         1 <0>         0.1211
     51 H28        -2.6140    3.6578    0.2297 H         1 <0>         0.1198
@<TRIPOS>BOND
     1    1    2 1
     2    1   24 1
     3    1   25 1
     4    1   26 1
     5    2    7 ar
     6    2    3 ar
     7    3    4 ar
     8    3   27 1
     9    4    5 ar
    10    4   28 1
    11    5    6 ar
    12    5    8 1
    13    6    7 ar
    14    6   29 1
    15    7   30 1
    16    8    9 1
    17    8   31 1
    18    8   32 1
    19    9   14 1
    20    9   10 1
    21   10   11 1
    22   10   33 1
    23   10   34 1
    24   11   12 1
    25   11   35 1
    26   11   36 1
    27   12   13 1
    28   12   15 1
    29   13   14 1
    30   13   37 1
    31   13   38 1
    32   14   39 1
    33   14   40 1
    34   15   16 1
    35   15   41 1
    36   15   42 1
    37   16   17 1
    38   16   43 1
    39   16   44 1
    40   17   18 1
    41   17   45 1
    42   17   46 1
    43   18   23 ar
    44   18   19 ar
    45   19   20 ar
    46   19   47 1
    47   20   21 ar
    48   20   48 1
    49   21   22 ar
    50   21   49 1
    51   22   23 ar
    52   22   50 1
    53   23   51 1
@<TRIPOS>MOLECULE
ZINC19362920
   49    51     0     0     0
SMALL
USER_CHARGES
1-[(2-bromophenyl)methyl]-4-(3-phenylpropyl)piperazine
@<TRIPOS>ATOM
      1 C1         -0.0221    6.6195    1.0655 C.ar      1 <0>        -0.1135
      2 C2         -1.1151    5.9796    0.5116 C.ar      1 <0>        -0.1154
      3 C3         -1.1986    4.6002    0.5449 C.ar      1 <0>        -0.1159
      4 C4         -0.1893    3.8607    1.1326 C.ar      1 <0>        -0.0999
      5 C5          0.9009    4.5008    1.6915 C.ar      1 <0>        -0.1157
      6 C6          0.9869    5.8800    1.6536 C.ar      1 <0>        -0.1155
      7 C7         -0.2806    2.3569    1.1693 C.3       1 <0>        -0.0742
      8 C8          0.3734    1.7755   -0.0858 C.3       1 <0>        -0.1430
      9 C9          0.2808    0.2487   -0.0485 C.3       1 <0>        -0.0069
     10 N1          0.9087   -0.3095   -1.2535 N.4       1 <0>        -0.4003
     11 C10         0.1509    0.0542   -2.4589 C.3       1 <0>        -0.0018
     12 C11         0.8789   -0.4775   -3.6957 C.3       1 <0>         0.0230
     13 N2          1.0223   -1.9360   -3.5874 N.3       1 <0>        -0.5270
     14 C12         1.7801   -2.2997   -2.3820 C.3       1 <0>         0.0264
     15 C13         1.0521   -1.7681   -1.1451 C.3       1 <0>         0.0020
     16 C14         1.6502   -2.4942   -4.7924 C.3       1 <0>         0.0917
     17 C15         0.9047   -2.0197   -6.0131 C.ar      1 <0>        -0.0779
     18 C16         1.4584   -1.0496   -6.8276 C.ar      1 <0>        -0.1100
     19 C17         0.7766   -0.6174   -7.9496 C.ar      1 <0>        -0.1025
     20 C18        -0.4636   -1.1481   -8.2526 C.ar      1 <0>        -0.1025
     21 C19        -1.0203   -2.1142   -7.4360 C.ar      1 <0>        -0.0913
     22 C20        -0.3361   -2.5505   -6.3155 C.ar      1 <0>        -0.0705
     23 Br1        -1.0975   -3.8719   -5.1974 Br        1 <0>        -0.0339
     24 H1          0.0433    7.6972    1.0392 H         1 <0>         0.1264
     25 H2         -1.9036    6.5574    0.0525 H         1 <0>         0.1260
     26 H3         -2.0525    4.1003    0.1121 H         1 <0>         0.1211
     27 H4          1.6873    3.9232    2.1546 H         1 <0>         0.1212
     28 H5          1.8407    6.3799    2.0867 H         1 <0>         0.1260
     29 H6          0.2396    1.9797    2.0621 H         1 <0>         0.0834
     30 H7         -1.3376    2.0545    1.2056 H         1 <0>         0.0831
     31 H8         -0.1468    2.1527   -0.9786 H         1 <0>         0.0877
     32 H9          1.4304    2.0780   -0.1222 H         1 <0>         0.0881
     33 H10         0.8010   -0.1285    0.8443 H         1 <0>         0.1323
     34 H11        -0.7762   -0.0538   -0.0121 H         1 <0>         0.1290
     35 H12        -0.8553   -0.3872   -2.4065 H         1 <0>         0.1354
     36 H13         0.0680    1.1492   -2.5235 H         1 <0>         0.1351
     37 H14         0.2984   -0.2311   -4.5970 H         1 <0>         0.1227
     38 H15         1.8743   -0.0142   -3.7627 H         1 <0>         0.0602
     39 H16         1.8630   -3.3947   -2.3175 H         1 <0>         0.1251
     40 H17         2.7863   -1.8583   -2.4343 H         1 <0>         0.0614
     41 H18         1.6322   -2.0135   -0.2433 H         1 <0>         0.1363
     42 H19         0.0563   -2.2304   -1.0776 H         1 <0>         0.1359
     43 H20         2.6967   -2.1599   -4.8489 H         1 <0>         0.0594
     44 H21         1.6181   -3.5928   -4.7472 H         1 <0>         0.1059
     45 H22         2.4253   -0.6319   -6.5891 H         1 <0>         0.1291
     46 H23         1.2112    0.1378   -8.5878 H         1 <0>         0.1336
     47 H24        -0.9976   -0.8074   -9.1273 H         1 <0>         0.1365
     48 H25        -1.9894   -2.5281   -7.6723 H         1 <0>         0.1368
     49 H26         1.9153    0.1254   -1.3410 H         1 <0>         0.4368
@<TRIPOS>BOND
     1    1    6 ar
     2    1    2 ar
     3    1   24 1
     4    2    3 ar
     5    2   25 1
     6    3    4 ar
     7    3   26 1
     8    4    5 ar
     9    4    7 1
    10    5    6 ar
    11    5   27 1
    12    6   28 1
    13    7    8 1
    14    7   29 1
    15    7   30 1
    16    8    9 1
    17    8   31 1
    18    8   32 1
    19    9   10 1
    20    9   33 1
    21    9   34 1
    22   10   15 1
    23   10   11 1
    24   10   49 1
    25   11   12 1
    26   11   35 1
    27   11   36 1
    28   12   13 1
    29   12   37 1
    30   12   38 1
    31   13   14 1
    32   13   16 1
    33   14   15 1
    34   14   39 1
    35   14   40 1
    36   15   41 1
    37   15   42 1
    38   16   17 1
    39   16   43 1
    40   16   44 1
    41   17   22 ar
    42   17   18 ar
    43   18   19 ar
    44   18   45 1
    45   19   20 ar
    46   19   46 1
    47   20   21 ar
    48   20   47 1
    49   21   22 ar
    50   21   48 1
    51   22   23 1
@<TRIPOS>MOLECULE
ZINC19362920
   49    51     0     0     0
SMALL
USER_CHARGES
1-[(2-bromophenyl)methyl]-4-(3-phenylpropyl)piperazine
@<TRIPOS>ATOM
      1 C1         -0.0221    6.6195    1.0655 C.ar      1 <0>        -0.1203
      2 C2         -1.1151    5.9796    0.5116 C.ar      1 <0>        -0.1171
      3 C3         -1.1986    4.6002    0.5449 C.ar      1 <0>        -0.1193
      4 C4         -0.1893    3.8607    1.1326 C.ar      1 <0>        -0.0884
      5 C5          0.9009    4.5008    1.6915 C.ar      1 <0>        -0.1167
      6 C6          0.9869    5.8800    1.6536 C.ar      1 <0>        -0.1160
      7 C7         -0.2806    2.3569    1.1693 C.3       1 <0>        -0.0807
      8 C8          0.3734    1.7755   -0.0858 C.3       1 <0>        -0.1116
      9 C9          0.2808    0.2487   -0.0485 C.3       1 <0>         0.0521
     10 N1          0.9087   -0.3095   -1.2535 N.3       1 <0>        -0.5371
     11 C10         0.1509    0.0542   -2.4589 C.3       1 <0>         0.0215
     12 C11         0.8789   -0.4775   -3.6957 C.3       1 <0>        -0.0029
     13 N2          1.0223   -1.9360   -3.5874 N.4       1 <0>        -0.4027
     14 C12         1.7801   -2.2997   -2.3820 C.3       1 <0>        -0.0012
     15 C13         1.0521   -1.7681   -1.1451 C.3       1 <0>         0.0241
     16 C14         1.6502   -2.4942   -4.7924 C.3       1 <0>         0.0365
     17 C15         0.9047   -2.0197   -6.0131 C.ar      1 <0>        -0.1267
     18 C16         1.4584   -1.0496   -6.8276 C.ar      1 <0>        -0.0830
     19 C17         0.7766   -0.6174   -7.9496 C.ar      1 <0>        -0.0931
     20 C18        -0.4636   -1.1481   -8.2526 C.ar      1 <0>        -0.0803
     21 C19        -1.0203   -2.1142   -7.4360 C.ar      1 <0>        -0.0791
     22 C20        -0.3361   -2.5505   -6.3155 C.ar      1 <0>        -0.0891
     23 Br1        -1.0975   -3.8719   -5.1974 Br        1 <0>        -0.0310
     24 H1          0.0433    7.6972    1.0392 H         1 <0>         0.1237
     25 H2         -1.9036    6.5574    0.0525 H         1 <0>         0.1230
     26 H3         -2.0525    4.1003    0.1121 H         1 <0>         0.1186
     27 H4          1.6873    3.9232    2.1546 H         1 <0>         0.1210
     28 H5          1.8407    6.3799    2.0867 H         1 <0>         0.1239
     29 H6          0.2396    1.9797    2.0621 H         1 <0>         0.0766
     30 H7         -1.3376    2.0545    1.2056 H         1 <0>         0.0730
     31 H8         -0.1468    2.1527   -0.9786 H         1 <0>         0.0646
     32 H9          1.4304    2.0780   -0.1222 H         1 <0>         0.0783
     33 H10         0.8010   -0.1285    0.8443 H         1 <0>         0.0910
     34 H11        -0.7762   -0.0538   -0.0121 H         1 <0>         0.0478
     35 H12        -0.8553   -0.3872   -2.4065 H         1 <0>         0.0594
     36 H13         0.0680    1.1492   -2.5235 H         1 <0>         0.1273
     37 H14         0.2984   -0.2311   -4.5970 H         1 <0>         0.1324
     38 H15         1.8743   -0.0142   -3.7627 H         1 <0>         0.1383
     39 H16         1.8630   -3.3947   -2.3175 H         1 <0>         0.1373
     40 H17         2.7863   -1.8583   -2.4343 H         1 <0>         0.1398
     41 H18         1.6322   -2.0135   -0.2433 H         1 <0>         0.1271
     42 H19         0.0563   -2.2304   -1.0776 H         1 <0>         0.0599
     43 H20         2.6967   -2.1599   -4.8489 H         1 <0>         0.1450
     44 H21         1.6181   -3.5928   -4.7472 H         1 <0>         0.1420
     45 H22         2.4253   -0.6319   -6.5891 H         1 <0>         0.1441
     46 H23         1.2112    0.1378   -8.5878 H         1 <0>         0.1458
     47 H24        -0.9976   -0.8074   -9.1273 H         1 <0>         0.1473
     48 H25        -1.9894   -2.5281   -7.6723 H         1 <0>         0.1471
     49 H26         0.0157   -2.3708   -3.5000 H         1 <0>         0.4274
@<TRIPOS>BOND
     1    1    6 ar
     2    1    2 ar
     3    1   24 1
     4    2    3 ar
     5    2   25 1
     6    3    4 ar
     7    3   26 1
     8    4    5 ar
     9    4    7 1
    10    5    6 ar
    11    5   27 1
    12    6   28 1
    13    7    8 1
    14    7   29 1
    15    7   30 1
    16    8    9 1
    17    8   31 1
    18    8   32 1
    19    9   10 1
    20    9   33 1
    21    9   34 1
    22   10   15 1
    23   10   11 1
    24   11   12 1
    25   11   35 1
    26   11   36 1
    27   12   13 1
    28   12   37 1
    29   12   38 1
    30   13   14 1
    31   13   16 1
    32   13   49 1
    33   14   15 1
    34   14   39 1
    35   14   40 1
    36   15   41 1
    37   15   42 1
    38   16   17 1
    39   16   43 1
    40   16   44 1
    41   17   22 ar
    42   17   18 ar
    43   18   19 ar
    44   18   45 1
    45   19   20 ar
    46   19   46 1
    47   20   21 ar
    48   20   47 1
    49   21   22 ar
    50   21   48 1
    51   22   23 1
@<TRIPOS>MOLECULE
ZINC19362920
   48    50     0     0     0
SMALL
USER_CHARGES
1-[(2-bromophenyl)methyl]-4-(3-phenylpropyl)piperazine
@<TRIPOS>ATOM
      1 C1         -0.0221    6.6195    1.0655 C.ar      1 <0>        -0.1258
      2 C2         -1.1151    5.9796    0.5116 C.ar      1 <0>        -0.1182
      3 C3         -1.1986    4.6002    0.5449 C.ar      1 <0>        -0.1188
      4 C4         -0.1893    3.8607    1.1326 C.ar      1 <0>        -0.0798
      5 C5          0.9009    4.5008    1.6915 C.ar      1 <0>        -0.1175
      6 C6          0.9869    5.8800    1.6536 C.ar      1 <0>        -0.1180
      7 C7         -0.2806    2.3569    1.1693 C.3       1 <0>        -0.0816
      8 C8          0.3734    1.7755   -0.0858 C.3       1 <0>        -0.1092
      9 C9          0.2808    0.2487   -0.0485 C.3       1 <0>         0.0549
     10 N1          0.9087   -0.3095   -1.2535 N.3       1 <0>        -0.5391
     11 C10         0.1509    0.0542   -2.4589 C.3       1 <0>         0.0557
     12 C11         0.8789   -0.4775   -3.6957 C.3       1 <0>         0.0564
     13 N2          1.0223   -1.9360   -3.5874 N.3       1 <0>        -0.5239
     14 C12         1.7801   -2.2997   -2.3820 C.3       1 <0>         0.0582
     15 C13         1.0521   -1.7681   -1.1451 C.3       1 <0>         0.0577
     16 C14         1.6502   -2.4942   -4.7924 C.3       1 <0>         0.0874
     17 C15         0.9047   -2.0197   -6.0131 C.ar      1 <0>        -0.0582
     18 C16         1.4584   -1.0496   -6.8276 C.ar      1 <0>        -0.1097
     19 C17         0.7766   -0.6174   -7.9496 C.ar      1 <0>        -0.1055
     20 C18        -0.4636   -1.1481   -8.2526 C.ar      1 <0>        -0.1133
     21 C19        -1.0203   -2.1142   -7.4360 C.ar      1 <0>        -0.0945
     22 C20        -0.3361   -2.5505   -6.3155 C.ar      1 <0>        -0.0701
     23 Br1        -1.0975   -3.8719   -5.1974 Br        1 <0>        -0.0372
     24 H1          0.0433    7.6972    1.0392 H         1 <0>         0.1206
     25 H2         -1.9036    6.5574    0.0525 H         1 <0>         0.1210
     26 H3         -2.0525    4.1003    0.1121 H         1 <0>         0.1198
     27 H4          1.6873    3.9232    2.1546 H         1 <0>         0.1209
     28 H5          1.8407    6.3799    2.0867 H         1 <0>         0.1213
     29 H6          0.2396    1.9797    2.0621 H         1 <0>         0.0737
     30 H7         -1.3376    2.0545    1.2056 H         1 <0>         0.0716
     31 H8         -0.1468    2.1527   -0.9786 H         1 <0>         0.0639
     32 H9          1.4304    2.0780   -0.1222 H         1 <0>         0.0725
     33 H10         0.8010   -0.1285    0.8443 H         1 <0>         0.0756
     34 H11        -0.7762   -0.0538   -0.0121 H         1 <0>         0.0351
     35 H12        -0.8553   -0.3872   -2.4065 H         1 <0>         0.0424
     36 H13         0.0680    1.1492   -2.5235 H         1 <0>         0.0808
     37 H14         0.2984   -0.2311   -4.5970 H         1 <0>         0.0794
     38 H15         1.8743   -0.0142   -3.7627 H         1 <0>         0.0412
     39 H16         1.8630   -3.3947   -2.3175 H         1 <0>         0.0816
     40 H17         2.7863   -1.8583   -2.4343 H         1 <0>         0.0433
     41 H18         1.6322   -2.0135   -0.2433 H         1 <0>         0.0801
     42 H19         0.0563   -2.2304   -1.0776 H         1 <0>         0.0438
     43 H20         2.6967   -2.1599   -4.8489 H         1 <0>         0.0473
     44 H21         1.6181   -3.5928   -4.7472 H         1 <0>         0.0934
     45 H22         2.4253   -0.6319   -6.5891 H         1 <0>         0.1281
     46 H23         1.2112    0.1378   -8.5878 H         1 <0>         0.1292
     47 H24        -0.9976   -0.8074   -9.1273 H         1 <0>         0.1311
     48 H25        -1.9894   -2.5281   -7.6723 H         1 <0>         0.1323
@<TRIPOS>BOND
     1    1    6 ar
     2    1    2 ar
     3    1   24 1
     4    2    3 ar
     5    2   25 1
     6    3    4 ar
     7    3   26 1
     8    4    5 ar
     9    4    7 1
    10    5    6 ar
    11    5   27 1
    12    6   28 1
    13    7    8 1
    14    7   29 1
    15    7   30 1
    16    8    9 1
    17    8   31 1
    18    8   32 1
    19    9   10 1
    20    9   33 1
    21    9   34 1
    22   10   15 1
    23   10   11 1
    24   11   12 1
    25   11   35 1
    26   11   36 1
    27   12   13 1
    28   12   37 1
    29   12   38 1
    30   13   14 1
    31   13   16 1
    32   14   15 1
    33   14   39 1
    34   14   40 1
    35   15   41 1
    36   15   42 1
    37   16   17 1
    38   16   43 1
    39   16   44 1
    40   17   22 ar
    41   17   18 ar
    42   18   19 ar
    43   18   45 1
    44   19   20 ar
    45   19   46 1
    46   20   21 ar
    47   20   47 1
    48   21   22 ar
    49   21   48 1
    50   22   23 1
@<TRIPOS>MOLECULE
ZINC19877307
   49    51     0     0     0
SMALL
USER_CHARGES
1-[(3-fluorophenyl)methyl]-4-(3-phenylpropyl)piperazine
@<TRIPOS>ATOM
      1 C1         -0.7929    6.2904    1.2930 C.ar      1 <0>        -0.1133
      2 C2         -1.8259    5.5884    0.7006 C.ar      1 <0>        -0.1154
      3 C3         -1.8070    4.2062    0.6926 C.ar      1 <0>        -0.1159
      4 C4         -0.7552    3.5260    1.2775 C.ar      1 <0>        -0.1004
      5 C5          0.2749    4.2280    1.8750 C.ar      1 <0>        -0.1157
      6 C6          0.2586    5.6102    1.8784 C.ar      1 <0>        -0.1154
      7 C7         -0.7348    2.0192    1.2692 C.3       1 <0>        -0.0740
      8 C8         -0.0187    1.5258    0.0104 C.3       1 <0>        -0.1437
      9 C9          0.0021   -0.0041    0.0020 C.3       1 <0>        -0.0070
     10 N1          0.6897   -0.4778   -1.2066 N.4       1 <0>        -0.4012
     11 C10        -0.0731   -0.1351   -2.4150 C.3       1 <0>        -0.0026
     12 C11         0.7128   -0.5739   -3.6528 C.3       1 <0>         0.0178
     13 N2          0.9626   -2.0205   -3.5838 N.3       1 <0>        -0.5326
     14 C12         1.7254   -2.3632   -2.3754 C.3       1 <0>         0.0240
     15 C13         0.9394   -1.9244   -1.1376 C.3       1 <0>         0.0017
     16 C14         1.6502   -2.4942   -4.7924 C.3       1 <0>         0.0953
     17 C15         0.9768   -1.9189   -6.0116 C.ar      1 <0>        -0.0747
     18 C16        -0.0587   -2.6058   -6.6180 C.ar      1 <0>        -0.1057
     19 C17        -0.6805   -2.0770   -7.7335 C.ar      1 <0>        -0.0847
     20 C18        -0.2608   -0.8657   -8.2503 C.ar      1 <0>        -0.1438
     21 C19         0.7793   -0.1795   -7.6471 C.ar      1 <0>         0.1026
     22 C20         1.3981   -0.7078   -6.5264 C.ar      1 <0>        -0.1556
     23 F1          1.1907    1.0043   -8.1516 F         1 <0>        -0.1343
     24 H1         -0.8075    7.3703    1.2990 H         1 <0>         0.1265
     25 H2         -2.6476    6.1198    0.2436 H         1 <0>         0.1261
     26 H3         -2.6140    3.6578    0.2297 H         1 <0>         0.1211
     27 H4          1.0944    3.6965    2.3358 H         1 <0>         0.1212
     28 H5          1.0654    6.1587    2.3416 H         1 <0>         0.1261
     29 H6         -0.2028    1.6548    2.1604 H         1 <0>         0.0835
     30 H7         -1.7668    1.6385    1.2770 H         1 <0>         0.0832
     31 H8         -0.5508    1.8902   -0.8807 H         1 <0>         0.0879
     32 H9          1.0133    1.9066    0.0025 H         1 <0>         0.0883
     33 H10         0.5341   -0.3684    0.8932 H         1 <0>         0.1327
     34 H11        -1.0299   -0.3849    0.0098 H         1 <0>         0.1292
     35 H12        -1.0443   -0.6512   -2.3942 H         1 <0>         0.1355
     36 H13        -0.2363    0.9522   -2.4495 H         1 <0>         0.1360
     37 H14         0.1305   -0.3441   -4.5573 H         1 <0>         0.1273
     38 H15         1.6719   -0.0364   -3.6878 H         1 <0>         0.0608
     39 H16         1.8886   -3.4505   -2.3409 H         1 <0>         0.1259
     40 H17         2.6966   -1.8471   -2.3962 H         1 <0>         0.0623
     41 H18         1.5211   -2.1533   -0.2325 H         1 <0>         0.1370
     42 H19        -0.0203   -2.4609   -1.1022 H         1 <0>         0.1359
     43 H20         2.7012   -2.1705   -4.7670 H         1 <0>         0.0595
     44 H21         1.6057   -3.5926   -4.8329 H         1 <0>         0.1048
     45 H22        -0.3846   -3.5543   -6.2174 H         1 <0>         0.1344
     46 H23        -1.4919   -2.6124   -8.2039 H         1 <0>         0.1395
     47 H24        -0.7438   -0.4548   -9.1245 H         1 <0>         0.1411
     48 H25         2.2094   -0.1732   -6.0548 H         1 <0>         0.1315
     49 H26         1.6624    0.0327   -1.2627 H         1 <0>         0.4373
@<TRIPOS>BOND
     1    1    6 ar
     2    1    2 ar
     3    1   24 1
     4    2    3 ar
     5    2   25 1
     6    3    4 ar
     7    3   26 1
     8    4    5 ar
     9    4    7 1
    10    5    6 ar
    11    5   27 1
    12    6   28 1
    13    7    8 1
    14    7   29 1
    15    7   30 1
    16    8    9 1
    17    8   31 1
    18    8   32 1
    19    9   10 1
    20    9   33 1
    21    9   34 1
    22   10   15 1
    23   10   11 1
    24   10   49 1
    25   11   12 1
    26   11   35 1
    27   11   36 1
    28   12   13 1
    29   12   37 1
    30   12   38 1
    31   13   14 1
    32   13   16 1
    33   14   15 1
    34   14   39 1
    35   14   40 1
    36   15   41 1
    37   15   42 1
    38   16   17 1
    39   16   43 1
    40   16   44 1
    41   17   22 ar
    42   17   18 ar
    43   18   19 ar
    44   18   45 1
    45   19   20 ar
    46   19   46 1
    47   20   21 ar
    48   20   47 1
    49   21   22 ar
    50   21   23 1
    51   22   48 1
@<TRIPOS>MOLECULE
ZINC19877307
   49    51     0     0     0
SMALL
USER_CHARGES
1-[(3-fluorophenyl)methyl]-4-(3-phenylpropyl)piperazine
@<TRIPOS>ATOM
      1 C1         -0.7929    6.2904    1.2930 C.ar      1 <0>        -0.1201
      2 C2         -1.8259    5.5884    0.7006 C.ar      1 <0>        -0.1171
      3 C3         -1.8070    4.2062    0.6926 C.ar      1 <0>        -0.1193
      4 C4         -0.7552    3.5260    1.2775 C.ar      1 <0>        -0.0888
      5 C5          0.2749    4.2280    1.8750 C.ar      1 <0>        -0.1168
      6 C6          0.2586    5.6102    1.8784 C.ar      1 <0>        -0.1160
      7 C7         -0.7348    2.0192    1.2692 C.3       1 <0>        -0.0804
      8 C8         -0.0187    1.5258    0.0104 C.3       1 <0>        -0.1120
      9 C9          0.0021   -0.0041    0.0020 C.3       1 <0>         0.0529
     10 N1          0.6897   -0.4778   -1.2066 N.3       1 <0>        -0.5391
     11 C10        -0.0731   -0.1351   -2.4150 C.3       1 <0>         0.0225
     12 C11         0.7128   -0.5739   -3.6528 C.3       1 <0>        -0.0048
     13 N2          0.9626   -2.0205   -3.5838 N.4       1 <0>        -0.3988
     14 C12         1.7254   -2.3632   -2.3754 C.3       1 <0>         0.0013
     15 C13         0.9394   -1.9244   -1.1376 C.3       1 <0>         0.0249
     16 C14         1.6502   -2.4942   -4.7924 C.3       1 <0>         0.0469
     17 C15         0.9768   -1.9189   -6.0116 C.ar      1 <0>        -0.1285
     18 C16        -0.0587   -2.6058   -6.6180 C.ar      1 <0>        -0.1061
     19 C17        -0.6805   -2.0770   -7.7335 C.ar      1 <0>        -0.0813
     20 C18        -0.2608   -0.8657   -8.2503 C.ar      1 <0>        -0.1223
     21 C19         0.7793   -0.1795   -7.6471 C.ar      1 <0>         0.1109
     22 C20         1.3981   -0.7078   -6.5264 C.ar      1 <0>        -0.1359
     23 F1          1.1907    1.0043   -8.1516 F         1 <0>        -0.1248
     24 H1         -0.8075    7.3703    1.2990 H         1 <0>         0.1238
     25 H2         -2.6476    6.1198    0.2436 H         1 <0>         0.1231
     26 H3         -2.6140    3.6578    0.2297 H         1 <0>         0.1186
     27 H4          1.0944    3.6965    2.3358 H         1 <0>         0.1209
     28 H5          1.0654    6.1587    2.3416 H         1 <0>         0.1240
     29 H6         -0.2028    1.6548    2.1604 H         1 <0>         0.0764
     30 H7         -1.7668    1.6385    1.2770 H         1 <0>         0.0729
     31 H8         -0.5508    1.8902   -0.8807 H         1 <0>         0.0645
     32 H9          1.0133    1.9066    0.0025 H         1 <0>         0.0780
     33 H10         0.5341   -0.3684    0.8932 H         1 <0>         0.0902
     34 H11        -1.0299   -0.3849    0.0098 H         1 <0>         0.0476
     35 H12        -1.0443   -0.6512   -2.3942 H         1 <0>         0.0603
     36 H13        -0.2363    0.9522   -2.4495 H         1 <0>         0.1249
     37 H14         0.1305   -0.3441   -4.5573 H         1 <0>         0.1356
     38 H15         1.6719   -0.0364   -3.6878 H         1 <0>         0.1344
     39 H16         1.8886   -3.4505   -2.3409 H         1 <0>         0.1378
     40 H17         2.6966   -1.8471   -2.3962 H         1 <0>         0.1361
     41 H18         1.5211   -2.1533   -0.2325 H         1 <0>         0.1244
     42 H19        -0.0203   -2.4609   -1.1022 H         1 <0>         0.0608
     43 H20         2.7012   -2.1705   -4.7670 H         1 <0>         0.1369
     44 H21         1.6057   -3.5926   -4.8329 H         1 <0>         0.1433
     45 H22        -0.3846   -3.5543   -6.2174 H         1 <0>         0.1394
     46 H23        -1.4919   -2.6124   -8.2039 H         1 <0>         0.1474
     47 H24        -0.7438   -0.4548   -9.1245 H         1 <0>         0.1494
     48 H25         2.2094   -0.1732   -6.0548 H         1 <0>         0.1438
     49 H26        -0.0101   -2.5311   -3.5277 H         1 <0>         0.4380
@<TRIPOS>BOND
     1    1    6 ar
     2    1    2 ar
     3    1   24 1
     4    2    3 ar
     5    2   25 1
     6    3    4 ar
     7    3   26 1
     8    4    5 ar
     9    4    7 1
    10    5    6 ar
    11    5   27 1
    12    6   28 1
    13    7    8 1
    14    7   29 1
    15    7   30 1
    16    8    9 1
    17    8   31 1
    18    8   32 1
    19    9   10 1
    20    9   33 1
    21    9   34 1
    22   10   15 1
    23   10   11 1
    24   11   12 1
    25   11   35 1
    26   11   36 1
    27   12   13 1
    28   12   37 1
    29   12   38 1
    30   13   14 1
    31   13   16 1
    32   13   49 1
    33   14   15 1
    34   14   39 1
    35   14   40 1
    36   15   41 1
    37   15   42 1
    38   16   17 1
    39   16   43 1
    40   16   44 1
    41   17   22 ar
    42   17   18 ar
    43   18   19 ar
    44   18   45 1
    45   19   20 ar
    46   19   46 1
    47   20   21 ar
    48   20   47 1
    49   21   22 ar
    50   21   23 1
    51   22   48 1
@<TRIPOS>MOLECULE
ZINC19877307
   48    50     0     0     0
SMALL
USER_CHARGES
1-[(3-fluorophenyl)methyl]-4-(3-phenylpropyl)piperazine
@<TRIPOS>ATOM
      1 C1         -0.7929    6.2904    1.2930 C.ar      1 <0>        -0.1256
      2 C2         -1.8259    5.5884    0.7006 C.ar      1 <0>        -0.1182
      3 C3         -1.8070    4.2062    0.6926 C.ar      1 <0>        -0.1188
      4 C4         -0.7552    3.5260    1.2775 C.ar      1 <0>        -0.0802
      5 C5          0.2749    4.2280    1.8750 C.ar      1 <0>        -0.1175
      6 C6          0.2586    5.6102    1.8784 C.ar      1 <0>        -0.1180
      7 C7         -0.7348    2.0192    1.2692 C.3       1 <0>        -0.0813
      8 C8         -0.0187    1.5258    0.0104 C.3       1 <0>        -0.1099
      9 C9          0.0021   -0.0041    0.0020 C.3       1 <0>         0.0548
     10 N1          0.6897   -0.4778   -1.2066 N.3       1 <0>        -0.5399
     11 C10        -0.0731   -0.1351   -2.4150 C.3       1 <0>         0.0541
     12 C11         0.7128   -0.5739   -3.6528 C.3       1 <0>         0.0515
     13 N2          0.9626   -2.0205   -3.5838 N.3       1 <0>        -0.5324
     14 C12         1.7254   -2.3632   -2.3754 C.3       1 <0>         0.0556
     15 C13         0.9394   -1.9244   -1.1376 C.3       1 <0>         0.0566
     16 C14         1.6502   -2.4942   -4.7924 C.3       1 <0>         0.0911
     17 C15         0.9768   -1.9189   -6.0116 C.ar      1 <0>        -0.0556
     18 C16        -0.0587   -2.6058   -6.6180 C.ar      1 <0>        -0.1097
     19 C17        -0.6805   -2.0770   -7.7335 C.ar      1 <0>        -0.0897
     20 C18        -0.2608   -0.8657   -8.2503 C.ar      1 <0>        -0.1533
     21 C19         0.7793   -0.1795   -7.6471 C.ar      1 <0>         0.0984
     22 C20         1.3981   -0.7078   -6.5264 C.ar      1 <0>        -0.1494
     23 F1          1.1907    1.0043   -8.1516 F         1 <0>        -0.1389
     24 H1         -0.8075    7.3703    1.2990 H         1 <0>         0.1208
     25 H2         -2.6476    6.1198    0.2436 H         1 <0>         0.1212
     26 H3         -2.6140    3.6578    0.2297 H         1 <0>         0.1198
     27 H4          1.0944    3.6965    2.3358 H         1 <0>         0.1209
     28 H5          1.0654    6.1587    2.3416 H         1 <0>         0.1214
     29 H6         -0.2028    1.6548    2.1604 H         1 <0>         0.0738
     30 H7         -1.7668    1.6385    1.2770 H         1 <0>         0.0717
     31 H8         -0.5508    1.8902   -0.8807 H         1 <0>         0.0642
     32 H9          1.0133    1.9066    0.0025 H         1 <0>         0.0728
     33 H10         0.5341   -0.3684    0.8932 H         1 <0>         0.0762
     34 H11        -1.0299   -0.3849    0.0098 H         1 <0>         0.0354
     35 H12        -1.0443   -0.6512   -2.3942 H         1 <0>         0.0423
     36 H13        -0.2363    0.9522   -2.4495 H         1 <0>         0.0824
     37 H14         0.1305   -0.3441   -4.5573 H         1 <0>         0.0845
     38 H15         1.6719   -0.0364   -3.6878 H         1 <0>         0.0426
     39 H16         1.8886   -3.4505   -2.3409 H         1 <0>         0.0827
     40 H17         2.6966   -1.8471   -2.3962 H         1 <0>         0.0451
     41 H18         1.5211   -2.1533   -0.2325 H         1 <0>         0.0815
     42 H19        -0.0203   -2.4609   -1.1022 H         1 <0>         0.0435
     43 H20         2.7012   -2.1705   -4.7670 H         1 <0>         0.0485
     44 H21         1.6057   -3.5926   -4.8329 H         1 <0>         0.0913
     45 H22        -0.3846   -3.5543   -6.2174 H         1 <0>         0.1318
     46 H23        -1.4919   -2.6124   -8.2039 H         1 <0>         0.1344
     47 H24        -0.7438   -0.4548   -9.1245 H         1 <0>         0.1355
     48 H25         2.2094   -0.1732   -6.0548 H         1 <0>         0.1321
@<TRIPOS>BOND
     1    1    6 ar
     2    1    2 ar
     3    1   24 1
     4    2    3 ar
     5    2   25 1
     6    3    4 ar
     7    3   26 1
     8    4    5 ar
     9    4    7 1
    10    5    6 ar
    11    5   27 1
    12    6   28 1
    13    7    8 1
    14    7   29 1
    15    7   30 1
    16    8    9 1
    17    8   31 1
    18    8   32 1
    19    9   10 1
    20    9   33 1
    21    9   34 1
    22   10   15 1
    23   10   11 1
    24   11   12 1
    25   11   35 1
    26   11   36 1
    27   12   13 1
    28   12   37 1
    29   12   38 1
    30   13   14 1
    31   13   16 1
    32   14   15 1
    33   14   39 1
    34   14   40 1
    35   15   41 1
    36   15   42 1
    37   16   17 1
    38   16   43 1
    39   16   44 1
    40   17   22 ar
    41   17   18 ar
    42   18   19 ar
    43   18   45 1
    44   19   20 ar
    45   19   46 1
    46   20   21 ar
    47   20   47 1
    48   21   22 ar
    49   21   23 1
    50   22   48 1
@<TRIPOS>MOLECULE
ZINC19868053
   51    53     0     0     0
SMALL
USER_CHARGES
1-[(3-nitrophenyl)methyl]-4-(3-phenylpropyl)piperazine
@<TRIPOS>ATOM
      1 C1         -1.8188    8.9885   -5.9971 C.ar      1 <0>        -0.1127
      2 C2         -2.6376    8.7411   -4.9112 C.ar      1 <0>        -0.1151
      3 C3         -2.0942    8.2807   -3.7264 C.ar      1 <0>        -0.1159
      4 C4         -0.7319    8.0682   -3.6274 C.ar      1 <0>        -0.1010
      5 C5          0.0877    8.3211   -4.7116 C.ar      1 <0>        -0.1156
      6 C6         -0.4564    8.7765   -5.8979 C.ar      1 <0>        -0.1152
      7 C7         -0.1394    7.5668   -2.3357 C.3       1 <0>        -0.0737
      8 C8         -0.1186    6.0369   -2.3441 C.3       1 <0>        -0.1441
      9 C9          0.4829    5.5278   -1.0327 C.3       1 <0>        -0.0068
     10 N1          0.5028    4.0590   -1.0408 N.4       1 <0>        -0.4012
     11 C10         1.2840    3.5367    0.0891 C.3       1 <0>         0.0011
     12 C11         1.3468    2.0100   -0.0000 C.3       1 <0>         0.0251
     13 N2         -0.0178    1.4648    0.0101 N.3       1 <0>        -0.5358
     14 C12        -0.7990    1.9871   -1.1198 C.3       1 <0>         0.0169
     15 C13        -0.8618    3.5137   -1.0307 C.3       1 <0>        -0.0019
     16 C14         0.0021   -0.0041    0.0020 C.3       1 <0>         0.0953
     17 C15        -1.3878   -0.5267    0.2592 C.ar      1 <0>        -0.0925
     18 C16        -1.8043   -0.7753    1.5539 C.ar      1 <0>        -0.0444
     19 C17        -3.0803   -1.2509    1.7901 C.ar      1 <0>        -0.1106
     20 C18        -3.9373   -1.4863    0.7310 C.ar      1 <0>        -0.0466
     21 C19        -3.5193   -1.2423   -0.5636 C.ar      1 <0>        -0.0403
     22 C20        -2.2442   -0.7629   -0.7996 C.ar      1 <0>        -0.0571
     23 N3         -4.4367   -1.4948   -1.6975 N.pl3     1 <0>         0.0223
     24 O1         -4.0682   -1.2802   -2.8384 O.2       1 <0>        -0.1582
     25 O2         -5.5600   -1.9172   -1.4896 O.3       1 <0>        -0.1446
     26 H1         -2.2434    9.3479   -6.9228 H         1 <0>         0.1268
     27 H2         -3.7020    8.9071   -4.9885 H         1 <0>         0.1262
     28 H3         -2.7339    8.0874   -2.8781 H         1 <0>         0.1208
     29 H4          1.1526    8.1593   -4.6328 H         1 <0>         0.1212
     30 H5          0.1834    8.9701   -6.7462 H         1 <0>         0.1262
     31 H6          0.8876    7.9469   -2.2315 H         1 <0>         0.0836
     32 H7         -0.7488    7.9206   -1.4910 H         1 <0>         0.0829
     33 H8         -1.1456    5.6568   -2.4484 H         1 <0>         0.0878
     34 H9          0.4908    5.6831   -3.1887 H         1 <0>         0.0890
     35 H10         1.5099    5.9079   -0.9285 H         1 <0>         0.1335
     36 H11        -0.1265    5.8816   -0.1880 H         1 <0>         0.1292
     37 H12         2.3030    3.9494    0.0522 H         1 <0>         0.1383
     38 H13         0.8035    3.8304    1.0340 H         1 <0>         0.1357
     39 H14         1.8526    1.7176   -0.9320 H         1 <0>         0.0647
     40 H15         1.9068    1.6152    0.8605 H         1 <0>         0.1268
     41 H16        -0.3184    1.6934   -2.0647 H         1 <0>         0.0663
     42 H17        -1.8180    1.5744   -1.0830 H         1 <0>         0.1206
     43 H18        -1.3670    3.8071   -0.0986 H         1 <0>         0.1354
     44 H19        -1.4212    3.9095   -1.8912 H         1 <0>         0.1381
     45 H20         0.3524   -0.3606   -0.9779 H         1 <0>         0.0650
     46 H21         0.6812   -0.3660    0.7880 H         1 <0>         0.1080
     47 H22        -1.1335   -0.5949    2.3810 H         1 <0>         0.1461
     48 H23        -3.4068   -1.4420    2.8017 H         1 <0>         0.1538
     49 H24        -4.9333   -1.8612    0.9153 H         1 <0>         0.1588
     50 H25        -1.9175   -0.5726   -1.8112 H         1 <0>         0.1493
     51 H26         0.9916    3.7339   -1.9711 H         1 <0>         0.4385
@<TRIPOS>BOND
     1    1    6 ar
     2    1    2 ar
     3    1   26 1
     4    2    3 ar
     5    2   27 1
     6    3    4 ar
     7    3   28 1
     8    4    5 ar
     9    4    7 1
    10    5    6 ar
    11    5   29 1
    12    6   30 1
    13    7    8 1
    14    7   31 1
    15    7   32 1
    16    8    9 1
    17    8   33 1
    18    8   34 1
    19    9   10 1
    20    9   35 1
    21    9   36 1
    22   10   15 1
    23   10   11 1
    24   10   51 1
    25   11   12 1
    26   11   37 1
    27   11   38 1
    28   12   13 1
    29   12   39 1
    30   12   40 1
    31   13   14 1
    32   13   16 1
    33   14   15 1
    34   14   41 1
    35   14   42 1
    36   15   43 1
    37   15   44 1
    38   16   17 1
    39   16   45 1
    40   16   46 1
    41   17   22 ar
    42   17   18 ar
    43   18   19 ar
    44   18   47 1
    45   19   20 ar
    46   19   48 1
    47   20   21 ar
    48   20   49 1
    49   21   22 ar
    50   21   23 1
    51   22   50 1
    52   23   24 2
    53   23   25 1
@<TRIPOS>MOLECULE
ZINC19868053
   51    53     0     0     0
SMALL
USER_CHARGES
1-[(3-nitrophenyl)methyl]-4-(3-phenylpropyl)piperazine
@<TRIPOS>ATOM
      1 C1         -1.8188    8.9885   -5.9971 C.ar      1 <0>        -0.1196
      2 C2         -2.6376    8.7411   -4.9112 C.ar      1 <0>        -0.1169
      3 C3         -2.0942    8.2807   -3.7264 C.ar      1 <0>        -0.1193
      4 C4         -0.7319    8.0682   -3.6274 C.ar      1 <0>        -0.0894
      5 C5          0.0877    8.3211   -4.7116 C.ar      1 <0>        -0.1167
      6 C6         -0.4564    8.7765   -5.8979 C.ar      1 <0>        -0.1158
      7 C7         -0.1394    7.5668   -2.3357 C.3       1 <0>        -0.0802
      8 C8         -0.1186    6.0369   -2.3441 C.3       1 <0>        -0.1123
      9 C9          0.4829    5.5278   -1.0327 C.3       1 <0>         0.0529
     10 N1          0.5028    4.0590   -1.0408 N.3       1 <0>        -0.5382
     11 C10         1.2840    3.5367    0.0891 C.3       1 <0>         0.0245
     12 C11         1.3468    2.0100   -0.0000 C.3       1 <0>         0.0006
     13 N2         -0.0178    1.4648    0.0101 N.4       1 <0>        -0.4008
     14 C12        -0.7990    1.9871   -1.1198 C.3       1 <0>        -0.0058
     15 C13        -0.8618    3.5137   -1.0307 C.3       1 <0>         0.0226
     16 C14         0.0021   -0.0041    0.0020 C.3       1 <0>         0.0477
     17 C15        -1.3878   -0.5267    0.2592 C.ar      1 <0>        -0.1562
     18 C16        -1.8043   -0.7753    1.5539 C.ar      1 <0>        -0.0469
     19 C17        -3.0803   -1.2509    1.7901 C.ar      1 <0>        -0.1055
     20 C18        -3.9373   -1.4863    0.7310 C.ar      1 <0>        -0.0248
     21 C19        -3.5193   -1.2423   -0.5636 C.ar      1 <0>        -0.0366
     22 C20        -2.2442   -0.7629   -0.7996 C.ar      1 <0>        -0.0371
     23 N3         -4.4367   -1.4948   -1.6975 N.pl3     1 <0>         0.0165
     24 O1         -4.0682   -1.2802   -2.8384 O.2       1 <0>        -0.1450
     25 O2         -5.5600   -1.9172   -1.4896 O.3       1 <0>        -0.1331
     26 H1         -2.2434    9.3479   -6.9228 H         1 <0>         0.1241
     27 H2         -3.7020    8.9071   -4.9885 H         1 <0>         0.1233
     28 H3         -2.7339    8.0874   -2.8781 H         1 <0>         0.1183
     29 H4          1.1526    8.1593   -4.6328 H         1 <0>         0.1209
     30 H5          0.1834    8.9701   -6.7462 H         1 <0>         0.1241
     31 H6          0.8876    7.9469   -2.2315 H         1 <0>         0.0765
     32 H7         -0.7488    7.9206   -1.4910 H         1 <0>         0.0727
     33 H8         -1.1456    5.6568   -2.4484 H         1 <0>         0.0645
     34 H9          0.4908    5.6831   -3.1887 H         1 <0>         0.0787
     35 H10         1.5099    5.9079   -0.9285 H         1 <0>         0.0911
     36 H11        -0.1265    5.8816   -0.1880 H         1 <0>         0.0477
     37 H12         2.3030    3.9494    0.0522 H         1 <0>         0.1260
     38 H13         0.8035    3.8304    1.0340 H         1 <0>         0.0608
     39 H14         1.8526    1.7176   -0.9320 H         1 <0>         0.1387
     40 H15         1.9068    1.6152    0.8605 H         1 <0>         0.1388
     41 H16        -0.3184    1.6934   -2.0647 H         1 <0>         0.1401
     42 H17        -1.8180    1.5744   -1.0830 H         1 <0>         0.1286
     43 H18        -1.3670    3.8071   -0.0986 H         1 <0>         0.0603
     44 H19        -1.4212    3.9095   -1.8912 H         1 <0>         0.1272
     45 H20         0.3524   -0.3606   -0.9779 H         1 <0>         0.1425
     46 H21         0.6812   -0.3660    0.7880 H         1 <0>         0.1486
     47 H22        -1.1335   -0.5949    2.3810 H         1 <0>         0.1533
     48 H23        -3.4068   -1.4420    2.8017 H         1 <0>         0.1624
     49 H24        -4.9333   -1.8612    0.9153 H         1 <0>         0.1671
     50 H25        -1.9175   -0.5726   -1.8112 H         1 <0>         0.1614
     51 H26        -0.5066    1.7900    0.9403 H         1 <0>         0.4374
@<TRIPOS>BOND
     1    1    6 ar
     2    1    2 ar
     3    1   26 1
     4    2    3 ar
     5    2   27 1
     6    3    4 ar
     7    3   28 1
     8    4    5 ar
     9    4    7 1
    10    5    6 ar
    11    5   29 1
    12    6   30 1
    13    7    8 1
    14    7   31 1
    15    7   32 1
    16    8    9 1
    17    8   33 1
    18    8   34 1
    19    9   10 1
    20    9   35 1
    21    9   36 1
    22   10   15 1
    23   10   11 1
    24   11   12 1
    25   11   37 1
    26   11   38 1
    27   12   13 1
    28   12   39 1
    29   12   40 1
    30   13   14 1
    31   13   16 1
    32   13   51 1
    33   14   15 1
    34   14   41 1
    35   14   42 1
    36   15   43 1
    37   15   44 1
    38   16   17 1
    39   16   45 1
    40   16   46 1
    41   17   22 ar
    42   17   18 ar
    43   18   19 ar
    44   18   47 1
    45   19   20 ar
    46   19   48 1
    47   20   21 ar
    48   20   49 1
    49   21   22 ar
    50   21   23 1
    51   22   50 1
    52   23   24 2
    53   23   25 1
@<TRIPOS>MOLECULE
ZINC19868053
   50    52     0     0     0
SMALL
USER_CHARGES
1-[(3-nitrophenyl)methyl]-4-(3-phenylpropyl)piperazine
@<TRIPOS>ATOM
      1 C1         -1.8188    8.9885   -5.9971 C.ar      1 <0>        -0.1251
      2 C2         -2.6376    8.7411   -4.9112 C.ar      1 <0>        -0.1179
      3 C3         -2.0942    8.2807   -3.7264 C.ar      1 <0>        -0.1188
      4 C4         -0.7319    8.0682   -3.6274 C.ar      1 <0>        -0.0809
      5 C5          0.0877    8.3211   -4.7116 C.ar      1 <0>        -0.1175
      6 C6         -0.4564    8.7765   -5.8979 C.ar      1 <0>        -0.1178
      7 C7         -0.1394    7.5668   -2.3357 C.3       1 <0>        -0.0811
      8 C8         -0.1186    6.0369   -2.3441 C.3       1 <0>        -0.1102
      9 C9          0.4829    5.5278   -1.0327 C.3       1 <0>         0.0550
     10 N1          0.5028    4.0590   -1.0408 N.3       1 <0>        -0.5393
     11 C10         1.2840    3.5367    0.0891 C.3       1 <0>         0.0561
     12 C11         1.3468    2.0100   -0.0000 C.3       1 <0>         0.0564
     13 N2         -0.0178    1.4648    0.0101 N.3       1 <0>        -0.5348
     14 C12        -0.7990    1.9871   -1.1198 C.3       1 <0>         0.0504
     15 C13        -0.8618    3.5137   -1.0307 C.3       1 <0>         0.0548
     16 C14         0.0021   -0.0041    0.0020 C.3       1 <0>         0.0905
     17 C15        -1.3878   -0.5267    0.2592 C.ar      1 <0>        -0.0753
     18 C16        -1.8043   -0.7753    1.5539 C.ar      1 <0>        -0.0468
     19 C17        -3.0803   -1.2509    1.7901 C.ar      1 <0>        -0.1155
     20 C18        -3.9373   -1.4863    0.7310 C.ar      1 <0>        -0.0556
     21 C19        -3.5193   -1.2423   -0.5636 C.ar      1 <0>        -0.0431
     22 C20        -2.2442   -0.7629   -0.7996 C.ar      1 <0>        -0.0518
     23 N3         -4.4367   -1.4948   -1.6975 N.pl3     1 <0>         0.0268
     24 O1         -4.0682   -1.2802   -2.8384 O.2       1 <0>        -0.1589
     25 O2         -5.5600   -1.9172   -1.4896 O.3       1 <0>        -0.1570
     26 H1         -2.2434    9.3479   -6.9228 H         1 <0>         0.1210
     27 H2         -3.7020    8.9071   -4.9885 H         1 <0>         0.1213
     28 H3         -2.7339    8.0874   -2.8781 H         1 <0>         0.1195
     29 H4          1.1526    8.1593   -4.6328 H         1 <0>         0.1209
     30 H5          0.1834    8.9701   -6.7462 H         1 <0>         0.1216
     31 H6          0.8876    7.9469   -2.2315 H         1 <0>         0.0739
     32 H7         -0.7488    7.9206   -1.4910 H         1 <0>         0.0714
     33 H8         -1.1456    5.6568   -2.4484 H         1 <0>         0.0641
     34 H9          0.4908    5.6831   -3.1887 H         1 <0>         0.0735
     35 H10         1.5099    5.9079   -0.9285 H         1 <0>         0.0769
     36 H11        -0.1265    5.8816   -0.1880 H         1 <0>         0.0355
     37 H12         2.3030    3.9494    0.0522 H         1 <0>         0.0829
     38 H13         0.8035    3.8304    1.0340 H         1 <0>         0.0434
     39 H14         1.8526    1.7176   -0.9320 H         1 <0>         0.0474
     40 H15         1.9068    1.6152    0.8605 H         1 <0>         0.0837
     41 H16        -0.3184    1.6934   -2.0647 H         1 <0>         0.0481
     42 H17        -1.8180    1.5744   -1.0830 H         1 <0>         0.0780
     43 H18        -1.3670    3.8071   -0.0986 H         1 <0>         0.0421
     44 H19        -1.4212    3.9095   -1.8912 H         1 <0>         0.0845
     45 H20         0.3524   -0.3606   -0.9779 H         1 <0>         0.0542
     46 H21         0.6812   -0.3660    0.7880 H         1 <0>         0.0957
     47 H22        -1.1335   -0.5949    2.3810 H         1 <0>         0.1443
     48 H23        -3.4068   -1.4420    2.8017 H         1 <0>         0.1494
     49 H24        -4.9333   -1.8612    0.9153 H         1 <0>         0.1539
     50 H25        -1.9175   -0.5726   -1.8112 H         1 <0>         0.1501
@<TRIPOS>BOND
     1    1    6 ar
     2    1    2 ar
     3    1   26 1
     4    2    3 ar
     5    2   27 1
     6    3    4 ar
     7    3   28 1
     8    4    5 ar
     9    4    7 1
    10    5    6 ar
    11    5   29 1
    12    6   30 1
    13    7    8 1
    14    7   31 1
    15    7   32 1
    16    8    9 1
    17    8   33 1
    18    8   34 1
    19    9   10 1
    20    9   35 1
    21    9   36 1
    22   10   15 1
    23   10   11 1
    24   11   12 1
    25   11   37 1
    26   11   38 1
    27   12   13 1
    28   12   39 1
    29   12   40 1
    30   13   14 1
    31   13   16 1
    32   14   15 1
    33   14   41 1
    34   14   42 1
    35   15   43 1
    36   15   44 1
    37   16   17 1
    38   16   45 1
    39   16   46 1
    40   17   22 ar
    41   17   18 ar
    42   18   19 ar
    43   18   47 1
    44   19   20 ar
    45   19   48 1
    46   20   21 ar
    47   20   49 1
    48   21   22 ar
    49   21   23 1
    50   22   50 1
    51   23   24 2
    52   23   25 1
@<TRIPOS>MOLECULE
ZINC20248660
   53    55     0     0     0
SMALL
USER_CHARGES
1-[(4-methoxyphenyl)methyl]-4-(3-phenylpropyl)piperazine
@<TRIPOS>ATOM
      1 C1         -2.6152   -3.0578   -9.5424 C.3       1 <0>         0.0212
      2 O1         -1.7701   -1.9476   -9.2339 O.3       1 <0>        -0.3146
      3 C2         -0.9446   -2.0796   -8.1625 C.ar      1 <0>         0.1405
      4 C3         -0.0971   -1.0406   -7.8061 C.ar      1 <0>        -0.1522
      5 C4          0.7407   -1.1771   -6.7162 C.ar      1 <0>        -0.0771
      6 C5          0.7352   -2.3480   -5.9808 C.ar      1 <0>        -0.1366
      7 C6         -0.1045   -3.3871   -6.3374 C.ar      1 <0>        -0.0523
      8 C7         -0.9483   -3.2534   -7.4230 C.ar      1 <0>        -0.2077
      9 C8          1.6502   -2.4942   -4.7924 C.3       1 <0>         0.1019
     10 N1          0.9626   -2.0205   -3.5838 N.3       1 <0>        -0.5347
     11 C9          1.7254   -2.3632   -2.3754 C.3       1 <0>         0.0242
     12 C10         0.9394   -1.9244   -1.1376 C.3       1 <0>         0.0014
     13 N2          0.6897   -0.4778   -1.2066 N.4       1 <0>        -0.4006
     14 C11        -0.0731   -0.1351   -2.4150 C.3       1 <0>        -0.0023
     15 C12         0.7128   -0.5739   -3.6528 C.3       1 <0>         0.0199
     16 C13         0.0021   -0.0041    0.0020 C.3       1 <0>        -0.0070
     17 C14        -0.0187    1.5258    0.0104 C.3       1 <0>        -0.1434
     18 C15        -0.7348    2.0192    1.2692 C.3       1 <0>        -0.0742
     19 C16        -0.7552    3.5260    1.2775 C.ar      1 <0>        -0.1002
     20 C17         0.2749    4.2280    1.8750 C.ar      1 <0>        -0.1157
     21 C18         0.2586    5.6102    1.8784 C.ar      1 <0>        -0.1155
     22 C19        -0.7929    6.2904    1.2930 C.ar      1 <0>        -0.1134
     23 C20        -1.8259    5.5884    0.7006 C.ar      1 <0>        -0.1154
     24 C21        -1.8070    4.2062    0.6926 C.ar      1 <0>        -0.1159
     25 H1         -3.2266   -2.8190  -10.4251 H         1 <0>         0.1075
     26 H2         -3.2734   -3.2667   -8.6861 H         1 <0>         0.0587
     27 H3         -1.9962   -3.9423   -9.7534 H         1 <0>         0.0600
     28 H4         -0.0921   -0.1260   -8.3804 H         1 <0>         0.1339
     29 H5          1.4004   -0.3685   -6.4382 H         1 <0>         0.1249
     30 H6         -0.1035   -4.3024   -5.7642 H         1 <0>         0.1263
     31 H7         -1.6071   -4.0636   -7.6984 H         1 <0>         0.1321
     32 H8          1.9233   -3.5525   -4.6679 H         1 <0>         0.0959
     33 H9          2.5599   -1.8974   -4.9544 H         1 <0>         0.0551
     34 H10         1.8886   -3.4505   -2.3409 H         1 <0>         0.1239
     35 H11         2.6966   -1.8471   -2.3962 H         1 <0>         0.0610
     36 H12        -0.0197   -2.4618   -1.1028 H         1 <0>         0.1349
     37 H13         1.5215   -2.1543   -0.2330 H         1 <0>         0.1360
     38 H14        -1.0443   -0.6512   -2.3942 H         1 <0>         0.1347
     39 H15        -0.2363    0.9522   -2.4495 H         1 <0>         0.1357
     40 H16         1.6724   -0.0374   -3.6883 H         1 <0>         0.0604
     41 H17         0.1311   -0.3450   -4.5579 H         1 <0>         0.1267
     42 H18        -1.0299   -0.3849    0.0098 H         1 <0>         0.1288
     43 H19         0.5341   -0.3685    0.8932 H         1 <0>         0.1323
     44 H20         1.0133    1.9066    0.0026 H         1 <0>         0.0883
     45 H21        -0.5507    1.8902   -0.8808 H         1 <0>         0.0880
     46 H22        -1.7668    1.6385    1.2770 H         1 <0>         0.0831
     47 H23        -0.2028    1.6548    2.1604 H         1 <0>         0.0834
     48 H24         1.0944    3.6965    2.3359 H         1 <0>         0.1212
     49 H25         1.0654    6.1587    2.3416 H         1 <0>         0.1260
     50 H26        -0.8075    7.3703    1.2990 H         1 <0>         0.1265
     51 H27        -2.6476    6.1198    0.2436 H         1 <0>         0.1260
     52 H28        -2.6140    3.6578    0.2297 H         1 <0>         0.1211
     53 H29         1.6624    0.0327   -1.2627 H         1 <0>         0.4371
@<TRIPOS>BOND
     1    1    2 1
     2    1   25 1
     3    1   26 1
     4    1   27 1
     5    2    3 1
     6    3    8 ar
     7    3    4 ar
     8    4    5 ar
     9    4   28 1
    10    5    6 ar
    11    5   29 1
    12    6    7 ar
    13    6    9 1
    14    7    8 ar
    15    7   30 1
    16    8   31 1
    17    9   10 1
    18    9   32 1
    19    9   33 1
    20   10   15 1
    21   10   11 1
    22   11   12 1
    23   11   34 1
    24   11   35 1
    25   12   13 1
    26   12   36 1
    27   12   37 1
    28   13   14 1
    29   13   16 1
    30   13   53 1
    31   14   15 1
    32   14   38 1
    33   14   39 1
    34   15   40 1
    35   15   41 1
    36   16   17 1
    37   16   42 1
    38   16   43 1
    39   17   18 1
    40   17   44 1
    41   17   45 1
    42   18   19 1
    43   18   46 1
    44   18   47 1
    45   19   24 ar
    46   19   20 ar
    47   20   21 ar
    48   20   48 1
    49   21   22 ar
    50   21   49 1
    51   22   23 ar
    52   22   50 1
    53   23   24 ar
    54   23   51 1
    55   24   52 1
@<TRIPOS>MOLECULE
ZINC20248660
   53    55     0     0     0
SMALL
USER_CHARGES
1-[(4-methoxyphenyl)methyl]-4-(3-phenylpropyl)piperazine
@<TRIPOS>ATOM
      1 C1         -2.6152   -3.0578   -9.5424 C.3       1 <0>         0.0173
      2 O1         -1.7701   -1.9476   -9.2339 O.3       1 <0>        -0.3069
      3 C2         -0.9446   -2.0796   -8.1625 C.ar      1 <0>         0.1674
      4 C3         -0.0971   -1.0406   -7.8061 C.ar      1 <0>        -0.1501
      5 C4          0.7407   -1.1771   -6.7162 C.ar      1 <0>        -0.0542
      6 C5          0.7352   -2.3480   -5.9808 C.ar      1 <0>        -0.2043
      7 C6         -0.1045   -3.3871   -6.3374 C.ar      1 <0>        -0.0493
      8 C7         -0.9483   -3.2534   -7.4230 C.ar      1 <0>        -0.2088
      9 C8          1.6502   -2.4942   -4.7924 C.3       1 <0>         0.0533
     10 N1          0.9626   -2.0205   -3.5838 N.4       1 <0>        -0.3996
     11 C9          1.7254   -2.3632   -2.3754 C.3       1 <0>         0.0004
     12 C10         0.9394   -1.9244   -1.1376 C.3       1 <0>         0.0250
     13 N2          0.6897   -0.4778   -1.2066 N.3       1 <0>        -0.5386
     14 C11        -0.0731   -0.1351   -2.4150 C.3       1 <0>         0.0222
     15 C12         0.7128   -0.5739   -3.6528 C.3       1 <0>        -0.0030
     16 C13         0.0021   -0.0041    0.0020 C.3       1 <0>         0.0528
     17 C14        -0.0187    1.5258    0.0104 C.3       1 <0>        -0.1117
     18 C15        -0.7348    2.0192    1.2692 C.3       1 <0>        -0.0806
     19 C16        -0.7552    3.5260    1.2775 C.ar      1 <0>        -0.0885
     20 C17         0.2749    4.2280    1.8750 C.ar      1 <0>        -0.1167
     21 C18         0.2586    5.6102    1.8784 C.ar      1 <0>        -0.1160
     22 C19        -0.7929    6.2904    1.2930 C.ar      1 <0>        -0.1202
     23 C20        -1.8259    5.5884    0.7006 C.ar      1 <0>        -0.1171
     24 C21        -1.8070    4.2062    0.6926 C.ar      1 <0>        -0.1193
     25 H1         -3.2266   -2.8190  -10.4251 H         1 <0>         0.1133
     26 H2         -3.2734   -3.2667   -8.6861 H         1 <0>         0.0628
     27 H3         -1.9962   -3.9423   -9.7534 H         1 <0>         0.0640
     28 H4         -0.0921   -0.1260   -8.3804 H         1 <0>         0.1439
     29 H5          1.4004   -0.3685   -6.4382 H         1 <0>         0.1374
     30 H6         -0.1035   -4.3024   -5.7642 H         1 <0>         0.1335
     31 H7         -1.6071   -4.0636   -7.6984 H         1 <0>         0.1407
     32 H8          1.9233   -3.5525   -4.6679 H         1 <0>         0.1358
     33 H9          2.5599   -1.8974   -4.9544 H         1 <0>         0.1329
     34 H10         1.8886   -3.4505   -2.3409 H         1 <0>         0.1356
     35 H11         2.6966   -1.8471   -2.3962 H         1 <0>         0.1356
     36 H12        -0.0197   -2.4618   -1.1028 H         1 <0>         0.0596
     37 H13         1.5215   -2.1543   -0.2330 H         1 <0>         0.1234
     38 H14        -1.0443   -0.6512   -2.3942 H         1 <0>         0.0593
     39 H15        -0.2363    0.9522   -2.4495 H         1 <0>         0.1247
     40 H16         1.6724   -0.0374   -3.6883 H         1 <0>         0.1345
     41 H17         0.1311   -0.3450   -4.5579 H         1 <0>         0.1347
     42 H18        -1.0299   -0.3849    0.0098 H         1 <0>         0.0471
     43 H19         0.5341   -0.3685    0.8932 H         1 <0>         0.0898
     44 H20         1.0133    1.9066    0.0026 H         1 <0>         0.0780
     45 H21        -0.5507    1.8902   -0.8808 H         1 <0>         0.0647
     46 H22        -1.7668    1.6385    1.2770 H         1 <0>         0.0728
     47 H23        -0.2028    1.6548    2.1604 H         1 <0>         0.0763
     48 H24         1.0944    3.6965    2.3359 H         1 <0>         0.1209
     49 H25         1.0654    6.1587    2.3416 H         1 <0>         0.1239
     50 H26        -0.8075    7.3703    1.2990 H         1 <0>         0.1237
     51 H27        -2.6476    6.1198    0.2436 H         1 <0>         0.1231
     52 H28        -2.6140    3.6578    0.2297 H         1 <0>         0.1186
     53 H29        -0.0101   -2.5311   -3.5277 H         1 <0>         0.4357
@<TRIPOS>BOND
     1    1    2 1
     2    1   25 1
     3    1   26 1
     4    1   27 1
     5    2    3 1
     6    3    8 ar
     7    3    4 ar
     8    4    5 ar
     9    4   28 1
    10    5    6 ar
    11    5   29 1
    12    6    7 ar
    13    6    9 1
    14    7    8 ar
    15    7   30 1
    16    8   31 1
    17    9   10 1
    18    9   32 1
    19    9   33 1
    20   10   15 1
    21   10   11 1
    22   10   53 1
    23   11   12 1
    24   11   34 1
    25   11   35 1
    26   12   13 1
    27   12   36 1
    28   12   37 1
    29   13   14 1
    30   13   16 1
    31   14   15 1
    32   14   38 1
    33   14   39 1
    34   15   40 1
    35   15   41 1
    36   16   17 1
    37   16   42 1
    38   16   43 1
    39   17   18 1
    40   17   44 1
    41   17   45 1
    42   18   19 1
    43   18   46 1
    44   18   47 1
    45   19   24 ar
    46   19   20 ar
    47   20   21 ar
    48   20   48 1
    49   21   22 ar
    50   21   49 1
    51   22   23 ar
    52   22   50 1
    53   23   24 ar
    54   23   51 1
    55   24   52 1
@<TRIPOS>MOLECULE
ZINC20248660
   52    54     0     0     0
SMALL
USER_CHARGES
1-[(4-methoxyphenyl)methyl]-4-(3-phenylpropyl)piperazine
@<TRIPOS>ATOM
      1 C1         -2.6152   -3.0578   -9.5424 C.3       1 <0>         0.0236
      2 O1         -1.7701   -1.9476   -9.2339 O.3       1 <0>        -0.3183
      3 C2         -0.9446   -2.0796   -8.1625 C.ar      1 <0>         0.1275
      4 C3         -0.0971   -1.0406   -7.8061 C.ar      1 <0>        -0.1521
      5 C4          0.7407   -1.1771   -6.7162 C.ar      1 <0>        -0.0744
      6 C5          0.7352   -2.3480   -5.9808 C.ar      1 <0>        -0.1158
      7 C6         -0.1045   -3.3871   -6.3374 C.ar      1 <0>        -0.0577
      8 C7         -0.9483   -3.2534   -7.4230 C.ar      1 <0>        -0.2086
      9 C8          1.6502   -2.4942   -4.7924 C.3       1 <0>         0.0973
     10 N1          0.9626   -2.0205   -3.5838 N.3       1 <0>        -0.5344
     11 C9          1.7254   -2.3632   -2.3754 C.3       1 <0>         0.0559
     12 C10         0.9394   -1.9244   -1.1376 C.3       1 <0>         0.0567
     13 N2          0.6897   -0.4778   -1.2066 N.3       1 <0>        -0.5394
     14 C11        -0.0731   -0.1351   -2.4150 C.3       1 <0>         0.0545
     15 C12         0.7128   -0.5739   -3.6528 C.3       1 <0>         0.0530
     16 C13         0.0021   -0.0041    0.0020 C.3       1 <0>         0.0547
     17 C14        -0.0187    1.5258    0.0104 C.3       1 <0>        -0.1096
     18 C15        -0.7348    2.0192    1.2692 C.3       1 <0>        -0.0815
     19 C16        -0.7552    3.5260    1.2775 C.ar      1 <0>        -0.0800
     20 C17         0.2749    4.2280    1.8750 C.ar      1 <0>        -0.1175
     21 C18         0.2586    5.6102    1.8784 C.ar      1 <0>        -0.1180
     22 C19        -0.7929    6.2904    1.2930 C.ar      1 <0>        -0.1257
     23 C20        -1.8259    5.5884    0.7006 C.ar      1 <0>        -0.1182
     24 C21        -1.8070    4.2062    0.6926 C.ar      1 <0>        -0.1188
     25 H1         -3.2266   -2.8190  -10.4251 H         1 <0>         0.1023
     26 H2         -3.2734   -3.2667   -8.6861 H         1 <0>         0.0567
     27 H3         -1.9962   -3.9423   -9.7534 H         1 <0>         0.0567
     28 H4         -0.0921   -0.1260   -8.3804 H         1 <0>         0.1303
     29 H5          1.4004   -0.3685   -6.4382 H         1 <0>         0.1260
     30 H6         -0.1035   -4.3024   -5.7642 H         1 <0>         0.1247
     31 H7         -1.6071   -4.0636   -7.6984 H         1 <0>         0.1277
     32 H8          1.9233   -3.5525   -4.6679 H         1 <0>         0.0836
     33 H9          2.5599   -1.8974   -4.9544 H         1 <0>         0.0443
     34 H10         1.8886   -3.4505   -2.3409 H         1 <0>         0.0807
     35 H11         2.6966   -1.8471   -2.3962 H         1 <0>         0.0437
     36 H12        -0.0197   -2.4618   -1.1028 H         1 <0>         0.0425
     37 H13         1.5215   -2.1543   -0.2330 H         1 <0>         0.0805
     38 H14        -1.0443   -0.6512   -2.3942 H         1 <0>         0.0416
     39 H15        -0.2363    0.9522   -2.4495 H         1 <0>         0.0821
     40 H16         1.6724   -0.0374   -3.6883 H         1 <0>         0.0421
     41 H17         0.1311   -0.3450   -4.5579 H         1 <0>         0.0842
     42 H18        -1.0299   -0.3849    0.0098 H         1 <0>         0.0350
     43 H19         0.5341   -0.3685    0.8932 H         1 <0>         0.0758
     44 H20         1.0133    1.9066    0.0026 H         1 <0>         0.0728
     45 H21        -0.5507    1.8902   -0.8808 H         1 <0>         0.0643
     46 H22        -1.7668    1.6385    1.2770 H         1 <0>         0.0716
     47 H23        -0.2028    1.6548    2.1604 H         1 <0>         0.0737
     48 H24         1.0944    3.6965    2.3359 H         1 <0>         0.1209
     49 H25         1.0654    6.1587    2.3416 H         1 <0>         0.1214
     50 H26        -0.8075    7.3703    1.2990 H         1 <0>         0.1207
     51 H27        -2.6476    6.1198    0.2436 H         1 <0>         0.1211
     52 H28        -2.6140    3.6578    0.2297 H         1 <0>         0.1198
@<TRIPOS>BOND
     1    1    2 1
     2    1   25 1
     3    1   26 1
     4    1   27 1
     5    2    3 1
     6    3    8 ar
     7    3    4 ar
     8    4    5 ar
     9    4   28 1
    10    5    6 ar
    11    5   29 1
    12    6    7 ar
    13    6    9 1
    14    7    8 ar
    15    7   30 1
    16    8   31 1
    17    9   10 1
    18    9   32 1
    19    9   33 1
    20   10   15 1
    21   10   11 1
    22   11   12 1
    23   11   34 1
    24   11   35 1
    25   12   13 1
    26   12   36 1
    27   12   37 1
    28   13   14 1
    29   13   16 1
    30   14   15 1
    31   14   38 1
    32   14   39 1
    33   15   40 1
    34   15   41 1
    35   16   17 1
    36   16   42 1
    37   16   43 1
    38   17   18 1
    39   17   44 1
    40   17   45 1
    41   18   19 1
    42   18   46 1
    43   18   47 1
    44   19   24 ar
    45   19   20 ar
    46   20   21 ar
    47   20   48 1
    48   21   22 ar
    49   21   49 1
    50   22   23 ar
    51   22   50 1
    52   23   24 ar
    53   23   51 1
    54   24   52 1
@<TRIPOS>MOLECULE
ZINC24671770
   51    53     0     0     0
SMALL
USER_CHARGES
1-[(2-nitrophenyl)methyl]-4-(3-phenylpropyl)piperazine
@<TRIPOS>ATOM
      1 C1          0.1398    6.5963    1.0919 C.ar      1 <0>        -0.1135
      2 C2         -0.9649    5.9693    0.5466 C.ar      1 <0>        -0.1155
      3 C3         -1.0621    4.5907    0.5766 C.ar      1 <0>        -0.1161
      4 C4         -0.0548    3.8392    1.1523 C.ar      1 <0>        -0.0998
      5 C5          1.0472    4.4665    1.7027 C.ar      1 <0>        -0.1156
      6 C6          1.1469    5.8448    1.6680 C.ar      1 <0>        -0.1154
      7 C7         -0.1609    2.3363    1.1854 C.3       1 <0>        -0.0745
      8 C8          0.4751    1.7521   -0.0776 C.3       1 <0>        -0.1429
      9 C9          0.3673    0.2263   -0.0440 C.3       1 <0>        -0.0072
     10 N1          0.9779   -0.3346   -1.2566 N.4       1 <0>        -0.4000
     11 C10         0.2123    0.0405   -2.4536 C.3       1 <0>        -0.0008
     12 C11         0.9231   -0.4947   -3.6989 C.3       1 <0>         0.0181
     13 N2          1.0526   -1.9549   -3.5963 N.3       1 <0>        -0.5204
     14 C12         1.8182   -2.3300   -2.3993 C.3       1 <0>         0.0315
     15 C13         1.1075   -1.7948   -1.1540 C.3       1 <0>         0.0010
     16 C14         1.6633   -2.5158   -4.8090 C.3       1 <0>         0.0896
     17 C15         0.9109   -2.0300   -6.0210 C.ar      1 <0>        -0.0392
     18 C16         1.4649   -1.0598   -6.8355 C.ar      1 <0>        -0.1170
     19 C17         0.7770   -0.6178   -7.9498 C.ar      1 <0>        -0.0649
     20 C18        -0.4696   -1.1382   -8.2441 C.ar      1 <0>        -0.1071
     21 C19        -1.0256   -2.1043   -7.4270 C.ar      1 <0>        -0.0544
     22 C20        -0.3353   -2.5503   -6.3152 C.ar      1 <0>        -0.0256
     23 N3         -0.9309   -3.5846   -5.4398 N.pl3     1 <0>         0.0260
     24 O1         -1.9801   -4.1177   -5.7539 O.2       1 <0>        -0.1756
     25 O2         -0.3720   -3.9026   -4.4054 O.3       1 <0>        -0.1228
     26 H1          0.2159    7.6734    1.0681 H         1 <0>         0.1264
     27 H2         -1.7519    6.5564    0.0968 H         1 <0>         0.1259
     28 H3         -1.9251    4.1008    0.1505 H         1 <0>         0.1208
     29 H4          1.8321    3.8796    2.1564 H         1 <0>         0.1215
     30 H5          2.0098    6.3347    2.0944 H         1 <0>         0.1261
     31 H6          0.3640    1.9511    2.0720 H         1 <0>         0.0840
     32 H7         -1.2205    2.0444    1.2310 H         1 <0>         0.0833
     33 H8         -0.0498    2.1373   -0.9642 H         1 <0>         0.0867
     34 H9          1.5347    2.0439   -0.1232 H         1 <0>         0.0882
     35 H10         0.8922   -0.1589    0.8426 H         1 <0>         0.1337
     36 H11        -0.6923   -0.0655    0.0016 H         1 <0>         0.1292
     37 H12        -0.7978   -0.3909   -2.3929 H         1 <0>         0.1338
     38 H13         0.1399    1.1364   -2.5141 H         1 <0>         0.1354
     39 H14         0.3366   -0.2396   -4.5939 H         1 <0>         0.1153
     40 H15         1.9225   -0.0414   -3.7739 H         1 <0>         0.0624
     41 H16         1.8905   -3.4260   -2.3388 H         1 <0>         0.1310
     42 H17         2.8283   -1.8987   -2.4600 H         1 <0>         0.0606
     43 H18         1.6936   -2.0488   -0.2585 H         1 <0>         0.1380
     44 H19         0.1077   -2.2473   -1.0783 H         1 <0>         0.1384
     45 H20         2.7125   -2.1920   -4.8746 H         1 <0>         0.0623
     46 H21         1.6205   -3.6142   -4.7667 H         1 <0>         0.1196
     47 H22         2.4367   -0.6501   -6.6031 H         1 <0>         0.1452
     48 H23         1.2113    0.1374   -8.5882 H         1 <0>         0.1480
     49 H24        -1.0091   -0.7896   -9.1124 H         1 <0>         0.1526
     50 H25        -1.9996   -2.5106   -7.6567 H         1 <0>         0.1573
     51 H26         1.9880    0.0902   -1.3524 H         1 <0>         0.4366
@<TRIPOS>BOND
     1    1    6 ar
     2    1    2 ar
     3    1   26 1
     4    2    3 ar
     5    2   27 1
     6    3    4 ar
     7    3   28 1
     8    4    5 ar
     9    4    7 1
    10    5    6 ar
    11    5   29 1
    12    6   30 1
    13    7    8 1
    14    7   31 1
    15    7   32 1
    16    8    9 1
    17    8   33 1
    18    8   34 1
    19    9   10 1
    20    9   35 1
    21    9   36 1
    22   10   15 1
    23   10   11 1
    24   10   51 1
    25   11   12 1
    26   11   37 1
    27   11   38 1
    28   12   13 1
    29   12   39 1
    30   12   40 1
    31   13   14 1
    32   13   16 1
    33   14   15 1
    34   14   41 1
    35   14   42 1
    36   15   43 1
    37   15   44 1
    38   16   17 1
    39   16   45 1
    40   16   46 1
    41   17   22 ar
    42   17   18 ar
    43   18   19 ar
    44   18   47 1
    45   19   20 ar
    46   19   48 1
    47   20   21 ar
    48   20   49 1
    49   21   22 ar
    50   21   50 1
    51   22   23 1
    52   23   24 2
    53   23   25 1
@<TRIPOS>MOLECULE
ZINC24671770
   51    53     0     0     0
SMALL
USER_CHARGES
1-[(2-nitrophenyl)methyl]-4-(3-phenylpropyl)piperazine
@<TRIPOS>ATOM
      1 C1          0.1398    6.5963    1.0919 C.ar      1 <0>        -0.1204
      2 C2         -0.9649    5.9693    0.5466 C.ar      1 <0>        -0.1173
      3 C3         -1.0621    4.5907    0.5766 C.ar      1 <0>        -0.1195
      4 C4         -0.0548    3.8392    1.1523 C.ar      1 <0>        -0.0881
      5 C5          1.0472    4.4665    1.7027 C.ar      1 <0>        -0.1166
      6 C6          1.1469    5.8448    1.6680 C.ar      1 <0>        -0.1159
      7 C7         -0.1609    2.3363    1.1854 C.3       1 <0>        -0.0810
      8 C8          0.4751    1.7521   -0.0776 C.3       1 <0>        -0.1112
      9 C9          0.3673    0.2263   -0.0440 C.3       1 <0>         0.0518
     10 N1          0.9779   -0.3346   -1.2566 N.3       1 <0>        -0.5370
     11 C10         0.2123    0.0405   -2.4536 C.3       1 <0>         0.0230
     12 C11         0.9231   -0.4947   -3.6989 C.3       1 <0>        -0.0054
     13 N2          1.0526   -1.9549   -3.5963 N.4       1 <0>        -0.3977
     14 C12         1.8182   -2.3300   -2.3993 C.3       1 <0>         0.0052
     15 C13         1.1075   -1.7948   -1.1540 C.3       1 <0>         0.0244
     16 C14         1.6633   -2.5158   -4.8090 C.3       1 <0>         0.0372
     17 C15         0.9109   -2.0300   -6.0210 C.ar      1 <0>        -0.0867
     18 C16         1.4649   -1.0598   -6.8355 C.ar      1 <0>        -0.0889
     19 C17         0.7770   -0.6178   -7.9498 C.ar      1 <0>        -0.0541
     20 C18        -0.4696   -1.1382   -8.2441 C.ar      1 <0>        -0.0866
     21 C19        -1.0256   -2.1043   -7.4270 C.ar      1 <0>        -0.0410
     22 C20        -0.3353   -2.5503   -6.3152 C.ar      1 <0>        -0.0387
     23 N3         -0.9309   -3.5846   -5.4398 N.pl3     1 <0>         0.0280
     24 O1         -1.9801   -4.1177   -5.7539 O.2       1 <0>        -0.0720
     25 O2         -0.3720   -3.9026   -4.4054 O.3       1 <0>        -0.2273
     26 H1          0.2159    7.6734    1.0681 H         1 <0>         0.1237
     27 H2         -1.7519    6.5564    0.0968 H         1 <0>         0.1229
     28 H3         -1.9251    4.1008    0.1505 H         1 <0>         0.1184
     29 H4          1.8321    3.8796    2.1564 H         1 <0>         0.1212
     30 H5          2.0098    6.3347    2.0944 H         1 <0>         0.1240
     31 H6          0.3640    1.9511    2.0720 H         1 <0>         0.0771
     32 H7         -1.2205    2.0444    1.2310 H         1 <0>         0.0731
     33 H8         -0.0498    2.1373   -0.9642 H         1 <0>         0.0635
     34 H9          1.5347    2.0439   -0.1232 H         1 <0>         0.0783
     35 H10         0.8922   -0.1589    0.8426 H         1 <0>         0.0918
     36 H11        -0.6923   -0.0655    0.0016 H         1 <0>         0.0477
     37 H12        -0.7978   -0.3909   -2.3929 H         1 <0>         0.0568
     38 H13         0.1399    1.1364   -2.5141 H         1 <0>         0.1263
     39 H14         0.3366   -0.2396   -4.5939 H         1 <0>         0.1235
     40 H15         1.9225   -0.0414   -3.7739 H         1 <0>         0.1381
     41 H16         1.8905   -3.4260   -2.3388 H         1 <0>         0.1405
     42 H17         2.8283   -1.8987   -2.4600 H         1 <0>         0.1353
     43 H18         1.6936   -2.0488   -0.2585 H         1 <0>         0.1270
     44 H19         0.1077   -2.2473   -1.0783 H         1 <0>         0.0620
     45 H20         2.7125   -2.1920   -4.8746 H         1 <0>         0.1451
     46 H21         1.6205   -3.6142   -4.7667 H         1 <0>         0.1543
     47 H22         2.4367   -0.6501   -6.6031 H         1 <0>         0.1598
     48 H23         1.2113    0.1374   -8.5882 H         1 <0>         0.1601
     49 H24        -1.0091   -0.7896   -9.1124 H         1 <0>         0.1638
     50 H25        -1.9996   -2.5106   -7.6567 H         1 <0>         0.1686
     51 H26         0.0424   -2.3796   -3.5005 H         1 <0>         0.4330
@<TRIPOS>BOND
     1    1    6 ar
     2    1    2 ar
     3    1   26 1
     4    2    3 ar
     5    2   27 1
     6    3    4 ar
     7    3   28 1
     8    4    5 ar
     9    4    7 1
    10    5    6 ar
    11    5   29 1
    12    6   30 1
    13    7    8 1
    14    7   31 1
    15    7   32 1
    16    8    9 1
    17    8   33 1
    18    8   34 1
    19    9   10 1
    20    9   35 1
    21    9   36 1
    22   10   15 1
    23   10   11 1
    24   11   12 1
    25   11   37 1
    26   11   38 1
    27   12   13 1
    28   12   39 1
    29   12   40 1
    30   13   14 1
    31   13   16 1
    32   13   51 1
    33   14   15 1
    34   14   41 1
    35   14   42 1
    36   15   43 1
    37   15   44 1
    38   16   17 1
    39   16   45 1
    40   16   46 1
    41   17   22 ar
    42   17   18 ar
    43   18   19 ar
    44   18   47 1
    45   19   20 ar
    46   19   48 1
    47   20   21 ar
    48   20   49 1
    49   21   22 ar
    50   21   50 1
    51   22   23 1
    52   23   24 2
    53   23   25 1
@<TRIPOS>MOLECULE
ZINC24671770
   50    52     0     0     0
SMALL
USER_CHARGES
1-[(2-nitrophenyl)methyl]-4-(3-phenylpropyl)piperazine
@<TRIPOS>ATOM
      1 C1          0.1398    6.5963    1.0919 C.ar      1 <0>        -0.1258
      2 C2         -0.9649    5.9693    0.5466 C.ar      1 <0>        -0.1183
      3 C3         -1.0621    4.5907    0.5766 C.ar      1 <0>        -0.1190
      4 C4         -0.0548    3.8392    1.1523 C.ar      1 <0>        -0.0797
      5 C5          1.0472    4.4665    1.7027 C.ar      1 <0>        -0.1174
      6 C6          1.1469    5.8448    1.6680 C.ar      1 <0>        -0.1179
      7 C7         -0.1609    2.3363    1.1854 C.3       1 <0>        -0.0819
      8 C8          0.4751    1.7521   -0.0776 C.3       1 <0>        -0.1090
      9 C9          0.3673    0.2263   -0.0440 C.3       1 <0>         0.0544
     10 N1          0.9779   -0.3346   -1.2566 N.3       1 <0>        -0.5390
     11 C10         0.2123    0.0405   -2.4536 C.3       1 <0>         0.0560
     12 C11         0.9231   -0.4947   -3.6989 C.3       1 <0>         0.0516
     13 N2          1.0526   -1.9549   -3.5963 N.3       1 <0>        -0.5180
     14 C12         1.8182   -2.3300   -2.3993 C.3       1 <0>         0.0628
     15 C13         1.1075   -1.7948   -1.1540 C.3       1 <0>         0.0563
     16 C14         1.6633   -2.5158   -4.8090 C.3       1 <0>         0.0848
     17 C15         0.9109   -2.0300   -6.0210 C.ar      1 <0>        -0.0195
     18 C16         1.4649   -1.0598   -6.8355 C.ar      1 <0>        -0.1170
     19 C17         0.7770   -0.6178   -7.9498 C.ar      1 <0>        -0.0680
     20 C18        -0.4696   -1.1382   -8.2441 C.ar      1 <0>        -0.1178
     21 C19        -1.0256   -2.1043   -7.4270 C.ar      1 <0>        -0.0579
     22 C20        -0.3353   -2.5503   -6.3152 C.ar      1 <0>        -0.0267
     23 N3         -0.9309   -3.5846   -5.4398 N.pl3     1 <0>         0.0257
     24 O1         -1.9801   -4.1177   -5.7539 O.2       1 <0>        -0.1928
     25 O2         -0.3720   -3.9026   -4.4054 O.3       1 <0>        -0.1066
     26 H1          0.2159    7.6734    1.0681 H         1 <0>         0.1207
     27 H2         -1.7519    6.5564    0.0968 H         1 <0>         0.1210
     28 H3         -1.9251    4.1008    0.1505 H         1 <0>         0.1196
     29 H4          1.8321    3.8796    2.1564 H         1 <0>         0.1211
     30 H5          2.0098    6.3347    2.0944 H         1 <0>         0.1214
     31 H6          0.3640    1.9511    2.0720 H         1 <0>         0.0743
     32 H7         -1.2205    2.0444    1.2310 H         1 <0>         0.0717
     33 H8         -0.0498    2.1373   -0.9642 H         1 <0>         0.0629
     34 H9          1.5347    2.0439   -0.1232 H         1 <0>         0.0726
     35 H10         0.8922   -0.1589    0.8426 H         1 <0>         0.0770
     36 H11        -0.6923   -0.0655    0.0016 H         1 <0>         0.0355
     37 H12        -0.7978   -0.3909   -2.3929 H         1 <0>         0.0406
     38 H13         0.1399    1.1364   -2.5141 H         1 <0>         0.0813
     39 H14         0.3366   -0.2396   -4.5939 H         1 <0>         0.0719
     40 H15         1.9225   -0.0414   -3.7739 H         1 <0>         0.0441
     41 H16         1.8905   -3.4260   -2.3388 H         1 <0>         0.0881
     42 H17         2.8283   -1.8987   -2.4600 H         1 <0>         0.0426
     43 H18         1.6936   -2.0488   -0.2585 H         1 <0>         0.0820
     44 H19         0.1077   -2.2473   -1.0783 H         1 <0>         0.0467
     45 H20         2.7125   -2.1920   -4.8746 H         1 <0>         0.0506
     46 H21         1.6205   -3.6142   -4.7667 H         1 <0>         0.1075
     47 H22         2.4367   -0.6501   -6.6031 H         1 <0>         0.1442
     48 H23         1.2113    0.1374   -8.5882 H         1 <0>         0.1435
     49 H24        -1.0091   -0.7896   -9.1124 H         1 <0>         0.1472
     50 H25        -1.9996   -2.5106   -7.6567 H         1 <0>         0.1527
@<TRIPOS>BOND
     1    1    6 ar
     2    1    2 ar
     3    1   26 1
     4    2    3 ar
     5    2   27 1
     6    3    4 ar
     7    3   28 1
     8    4    5 ar
     9    4    7 1
    10    5    6 ar
    11    5   29 1
    12    6   30 1
    13    7    8 1
    14    7   31 1
    15    7   32 1
    16    8    9 1
    17    8   33 1
    18    8   34 1
    19    9   10 1
    20    9   35 1
    21    9   36 1
    22   10   15 1
    23   10   11 1
    24   11   12 1
    25   11   37 1
    26   11   38 1
    27   12   13 1
    28   12   39 1
    29   12   40 1
    30   13   14 1
    31   13   16 1
    32   14   15 1
    33   14   41 1
    34   14   42 1
    35   15   43 1
    36   15   44 1
    37   16   17 1
    38   16   45 1
    39   16   46 1
    40   17   22 ar
    41   17   18 ar
    42   18   19 ar
    43   18   47 1
    44   19   20 ar
    45   19   48 1
    46   20   21 ar
    47   20   49 1
    48   21   22 ar
    49   21   50 1
    50   22   23 1
    51   23   24 2
    52   23   25 1
@<TRIPOS>MOLECULE
ZINC19633439
   49    51     0     0     0
SMALL
USER_CHARGES
1-benzyl-4-(3-phenylpropyl)piperazine
@<TRIPOS>ATOM
      1 C1          0.2379    1.3851    8.3548 C.ar      1 <0>        -0.1134
      2 C2          0.8177    2.5474    7.8818 C.ar      1 <0>        -0.1154
      3 C3          0.2752    3.1947    6.7875 C.ar      1 <0>        -0.1158
      4 C4         -0.8475    2.6800    6.1665 C.ar      1 <0>        -0.1000
      5 C5         -1.4306    1.5207    6.6430 C.ar      1 <0>        -0.1159
      6 C6         -0.8850    0.8705    7.7341 C.ar      1 <0>        -0.1154
      7 C7         -1.4392    3.3859    4.9738 C.3       1 <0>        -0.0748
      8 C8         -0.7980    2.8481    3.6930 C.3       1 <0>        -0.1456
      9 C9         -1.3988    3.5648    2.4821 C.3       1 <0>        -0.0067
     10 N1         -0.7832    3.0484    1.2523 N.4       1 <0>        -0.4003
     11 C10        -0.7300    1.5798    1.2666 C.3       1 <0>        -0.0059
     12 C11        -0.0127    1.0858    0.0080 C.3       1 <0>         0.0248
     13 N2         -0.7243    1.5730   -1.1819 N.3       1 <0>        -0.5331
     14 C12        -0.7771    3.0416   -1.1959 C.3       1 <0>         0.0189
     15 C13        -1.4948    3.5356    0.0624 C.3       1 <0>         0.0016
     16 C14        -0.1087    1.0567   -2.4117 C.3       1 <0>         0.0961
     17 C15        -0.7005    1.7626   -3.6044 C.ar      1 <0>        -0.1044
     18 C16        -1.8197    1.2448   -4.2288 C.ar      1 <0>        -0.0951
     19 C17        -2.3654    1.8949   -5.3199 C.ar      1 <0>        -0.1162
     20 C18        -1.7858    3.0575   -5.7927 C.ar      1 <0>        -0.1083
     21 C19        -0.6632    3.5722   -5.1717 C.ar      1 <0>        -0.1183
     22 C20        -0.1206    2.9249   -4.0774 C.ar      1 <0>        -0.1189
     23 H1          0.6620    0.8791    9.2096 H         1 <0>         0.1265
     24 H2          1.6948    2.9496    8.3670 H         1 <0>         0.1260
     25 H3          0.7281    4.1028    6.4180 H         1 <0>         0.1211
     26 H4         -2.3103    1.1210    6.1605 H         1 <0>         0.1212
     27 H5         -1.3381   -0.0374    8.1039 H         1 <0>         0.1261
     28 H6         -2.5243    3.2077    4.9434 H         1 <0>         0.0830
     29 H7         -1.2471    4.4660    5.0544 H         1 <0>         0.0831
     30 H8          0.2870    3.0263    3.7234 H         1 <0>         0.0882
     31 H9         -0.9901    1.7680    3.6123 H         1 <0>         0.0908
     32 H10        -2.4839    3.3867    2.4518 H         1 <0>         0.1284
     33 H11        -1.2067    4.6449    2.5627 H         1 <0>         0.1326
     34 H12        -0.1825    1.2414    2.1586 H         1 <0>         0.1398
     35 H13        -1.7530    1.1760    1.2892 H         1 <0>         0.1354
     36 H14         1.0192    1.4668    0.0007 H         1 <0>         0.0610
     37 H15         0.0025   -0.0141    0.0024 H         1 <0>         0.1240
     38 H16         0.2460    3.4451   -1.2179 H         1 <0>         0.0597
     39 H17        -1.3241    3.3804   -2.0881 H         1 <0>         0.1290
     40 H18        -2.5266    3.1545    0.0706 H         1 <0>         0.1344
     41 H19        -1.5101    4.6355    0.0690 H         1 <0>         0.1353
     42 H20         0.9763    1.2349   -2.3813 H         1 <0>         0.0558
     43 H21        -0.3007   -0.0234   -2.4924 H         1 <0>         0.0992
     44 H22        -2.2701    0.3343   -3.8620 H         1 <0>         0.1256
     45 H23        -3.2423    1.4926   -5.8053 H         1 <0>         0.1277
     46 H24        -2.2099    3.5634   -6.6474 H         1 <0>         0.1272
     47 H25        -0.2102    4.4803   -5.5412 H         1 <0>         0.1261
     48 H26         0.7565    3.3270   -3.5922 H         1 <0>         0.1177
     49 H27         0.2493    3.4253    1.2084 H         1 <0>         0.4377
@<TRIPOS>BOND
     1    1    6 ar
     2    1    2 ar
     3    1   23 1
     4    2    3 ar
     5    2   24 1
     6    3    4 ar
     7    3   25 1
     8    4    5 ar
     9    4    7 1
    10    5    6 ar
    11    5   26 1
    12    6   27 1
    13    7    8 1
    14    7   28 1
    15    7   29 1
    16    8    9 1
    17    8   30 1
    18    8   31 1
    19    9   10 1
    20    9   32 1
    21    9   33 1
    22   10   15 1
    23   10   11 1
    24   10   49 1
    25   11   12 1
    26   11   34 1
    27   11   35 1
    28   12   13 1
    29   12   36 1
    30   12   37 1
    31   13   14 1
    32   13   16 1
    33   14   15 1
    34   14   38 1
    35   14   39 1
    36   15   40 1
    37   15   41 1
    38   16   17 1
    39   16   42 1
    40   16   43 1
    41   17   22 ar
    42   17   18 ar
    43   18   19 ar
    44   18   44 1
    45   19   20 ar
    46   19   45 1
    47   20   21 ar
    48   20   46 1
    49   21   22 ar
    50   21   47 1
    51   22   48 1
@<TRIPOS>MOLECULE
ZINC19633439
   49    51     0     0     0
SMALL
USER_CHARGES
1-benzyl-4-(3-phenylpropyl)piperazine
@<TRIPOS>ATOM
      1 C1          0.2379    1.3851    8.3548 C.ar      1 <0>        -0.1199
      2 C2          0.8177    2.5474    7.8818 C.ar      1 <0>        -0.1158
      3 C3          0.2752    3.1947    6.7875 C.ar      1 <0>        -0.1167
      4 C4         -0.8475    2.6800    6.1665 C.ar      1 <0>        -0.0894
      5 C5         -1.4306    1.5207    6.6430 C.ar      1 <0>        -0.1195
      6 C6         -0.8850    0.8705    7.7341 C.ar      1 <0>        -0.1171
      7 C7         -1.4392    3.3859    4.9738 C.3       1 <0>        -0.0802
      8 C8         -0.7980    2.8481    3.6930 C.3       1 <0>        -0.1194
      9 C9         -1.3988    3.5648    2.4821 C.3       1 <0>         0.0524
     10 N1         -0.7832    3.0484    1.2523 N.3       1 <0>        -0.5382
     11 C10        -0.7300    1.5798    1.2666 C.3       1 <0>         0.0166
     12 C11        -0.0127    1.0858    0.0080 C.3       1 <0>         0.0006
     13 N2         -0.7243    1.5730   -1.1819 N.4       1 <0>        -0.3984
     14 C12        -0.7771    3.0416   -1.1959 C.3       1 <0>        -0.0028
     15 C13        -1.4948    3.5356    0.0624 C.3       1 <0>         0.0268
     16 C14        -0.1087    1.0567   -2.4117 C.3       1 <0>         0.0469
     17 C15        -0.7005    1.7626   -3.6044 C.ar      1 <0>        -0.1590
     18 C16        -1.8197    1.2448   -4.2288 C.ar      1 <0>        -0.0950
     19 C17        -2.3654    1.8949   -5.3199 C.ar      1 <0>        -0.1136
     20 C18        -1.7858    3.0575   -5.7927 C.ar      1 <0>        -0.0849
     21 C19        -0.6632    3.5722   -5.1717 C.ar      1 <0>        -0.1138
     22 C20        -0.1206    2.9249   -4.0774 C.ar      1 <0>        -0.0966
     23 H1          0.6620    0.8791    9.2096 H         1 <0>         0.1240
     24 H2          1.6948    2.9496    8.3670 H         1 <0>         0.1241
     25 H3          0.7281    4.1028    6.4180 H         1 <0>         0.1212
     26 H4         -2.3103    1.1210    6.1605 H         1 <0>         0.1186
     27 H5         -1.3381   -0.0374    8.1039 H         1 <0>         0.1232
     28 H6         -2.5243    3.2077    4.9434 H         1 <0>         0.0735
     29 H7         -1.2471    4.4660    5.0544 H         1 <0>         0.0775
     30 H8          0.2870    3.0263    3.7234 H         1 <0>         0.0787
     31 H9         -0.9901    1.7680    3.6123 H         1 <0>         0.0671
     32 H10        -2.4839    3.3867    2.4518 H         1 <0>         0.0475
     33 H11        -1.2067    4.6449    2.5627 H         1 <0>         0.0924
     34 H12        -0.1825    1.2414    2.1586 H         1 <0>         0.1296
     35 H13        -1.7530    1.1760    1.2892 H         1 <0>         0.0602
     36 H14         1.0192    1.4668    0.0007 H         1 <0>         0.1352
     37 H15         0.0025   -0.0141    0.0024 H         1 <0>         0.1362
     38 H16         0.2460    3.4451   -1.2179 H         1 <0>         0.1334
     39 H17        -1.3241    3.3804   -2.0881 H         1 <0>         0.1372
     40 H18        -2.5266    3.1545    0.0706 H         1 <0>         0.0595
     41 H19        -1.5101    4.6355    0.0690 H         1 <0>         0.1223
     42 H20         0.9763    1.2349   -2.3813 H         1 <0>         0.1335
     43 H21        -0.3007   -0.0234   -2.4924 H         1 <0>         0.1377
     44 H22        -2.2701    0.3343   -3.8620 H         1 <0>         0.1306
     45 H23        -3.2423    1.4926   -5.8053 H         1 <0>         0.1357
     46 H24        -2.2099    3.5634   -6.6474 H         1 <0>         0.1357
     47 H25        -0.2102    4.4803   -5.5412 H         1 <0>         0.1360
     48 H26         0.7565    3.3270   -3.5922 H         1 <0>         0.1302
     49 H27        -1.7568    1.1962   -1.1382 H         1 <0>         0.4365
@<TRIPOS>BOND
     1    1    6 ar
     2    1    2 ar
     3    1   23 1
     4    2    3 ar
     5    2   24 1
     6    3    4 ar
     7    3   25 1
     8    4    5 ar
     9    4    7 1
    10    5    6 ar
    11    5   26 1
    12    6   27 1
    13    7    8 1
    14    7   28 1
    15    7   29 1
    16    8    9 1
    17    8   30 1
    18    8   31 1
    19    9   10 1
    20    9   32 1
    21    9   33 1
    22   10   15 1
    23   10   11 1
    24   11   12 1
    25   11   34 1
    26   11   35 1
    27   12   13 1
    28   12   36 1
    29   12   37 1
    30   13   14 1
    31   13   16 1
    32   13   49 1
    33   14   15 1
    34   14   38 1
    35   14   39 1
    36   15   40 1
    37   15   41 1
    38   16   17 1
    39   16   42 1
    40   16   43 1
    41   17   22 ar
    42   17   18 ar
    43   18   19 ar
    44   18   44 1
    45   19   20 ar
    46   19   45 1
    47   20   21 ar
    48   20   46 1
    49   21   22 ar
    50   21   47 1
    51   22   48 1
@<TRIPOS>MOLECULE
ZINC19633439
   48    50     0     0     0
SMALL
USER_CHARGES
1-benzyl-4-(3-phenylpropyl)piperazine
@<TRIPOS>ATOM
      1 C1          0.2379    1.3851    8.3548 C.ar      1 <0>        -0.1255
      2 C2          0.8177    2.5474    7.8818 C.ar      1 <0>        -0.1179
      3 C3          0.2752    3.1947    6.7875 C.ar      1 <0>        -0.1175
      4 C4         -0.8475    2.6800    6.1665 C.ar      1 <0>        -0.0806
      5 C5         -1.4306    1.5207    6.6430 C.ar      1 <0>        -0.1188
      6 C6         -0.8850    0.8705    7.7341 C.ar      1 <0>        -0.1181
      7 C7         -1.4392    3.3859    4.9738 C.3       1 <0>        -0.0812
      8 C8         -0.7980    2.8481    3.6930 C.3       1 <0>        -0.1166
      9 C9         -1.3988    3.5648    2.4821 C.3       1 <0>         0.0546
     10 N1         -0.7832    3.0484    1.2523 N.3       1 <0>        -0.5394
     11 C10        -0.7300    1.5798    1.2666 C.3       1 <0>         0.0509
     12 C11        -0.0127    1.0858    0.0080 C.3       1 <0>         0.0548
     13 N2         -0.7243    1.5730   -1.1819 N.3       1 <0>        -0.5329
     14 C12        -0.7771    3.0416   -1.1959 C.3       1 <0>         0.0535
     15 C13        -1.4948    3.5356    0.0624 C.3       1 <0>         0.0565
     16 C14        -0.1087    1.0567   -2.4117 C.3       1 <0>         0.0922
     17 C15        -0.7005    1.7626   -3.6044 C.ar      1 <0>        -0.0849
     18 C16        -1.8197    1.2448   -4.2288 C.ar      1 <0>        -0.0995
     19 C17        -2.3654    1.8949   -5.3199 C.ar      1 <0>        -0.1206
     20 C18        -1.7858    3.0575   -5.7927 C.ar      1 <0>        -0.1190
     21 C19        -0.6632    3.5722   -5.1717 C.ar      1 <0>        -0.1208
     22 C20        -0.1206    2.9249   -4.0774 C.ar      1 <0>        -0.1141
     23 H1          0.6620    0.8791    9.2096 H         1 <0>         0.1208
     24 H2          1.6948    2.9496    8.3670 H         1 <0>         0.1215
     25 H3          0.7281    4.1028    6.4180 H         1 <0>         0.1210
     26 H4         -2.3103    1.1210    6.1605 H         1 <0>         0.1199
     27 H5         -1.3381   -0.0374    8.1039 H         1 <0>         0.1213
     28 H6         -2.5243    3.2077    4.9434 H         1 <0>         0.0721
     29 H7         -1.2471    4.4660    5.0544 H         1 <0>         0.0744
     30 H8          0.2870    3.0263    3.7234 H         1 <0>         0.0734
     31 H9         -0.9901    1.7680    3.6123 H         1 <0>         0.0677
     32 H10        -2.4839    3.3867    2.4518 H         1 <0>         0.0352
     33 H11        -1.2067    4.6449    2.5627 H         1 <0>         0.0772
     34 H12        -0.1825    1.2414    2.1586 H         1 <0>         0.0871
     35 H13        -1.7530    1.1760    1.2892 H         1 <0>         0.0421
     36 H14         1.0192    1.4668    0.0007 H         1 <0>         0.0437
     37 H15         0.0025   -0.0141    0.0024 H         1 <0>         0.0808
     38 H16         0.2460    3.4451   -1.2179 H         1 <0>         0.0413
     39 H17        -1.3241    3.3804   -2.0881 H         1 <0>         0.0864
     40 H18        -2.5266    3.1545    0.0706 H         1 <0>         0.0423
     41 H19        -1.5101    4.6355    0.0690 H         1 <0>         0.0793
     42 H20         0.9763    1.2349   -2.3813 H         1 <0>         0.0447
     43 H21        -0.3007   -0.0234   -2.4924 H         1 <0>         0.0857
     44 H22        -2.2701    0.3343   -3.8620 H         1 <0>         0.1230
     45 H23        -3.2423    1.4926   -5.8053 H         1 <0>         0.1224
     46 H24        -2.2099    3.5634   -6.6474 H         1 <0>         0.1215
     47 H25        -0.2102    4.4803   -5.5412 H         1 <0>         0.1220
     48 H26         0.7565    3.3270   -3.5922 H         1 <0>         0.1184
@<TRIPOS>BOND
     1    1    6 ar
     2    1    2 ar
     3    1   23 1
     4    2    3 ar
     5    2   24 1
     6    3    4 ar
     7    3   25 1
     8    4    5 ar
     9    4    7 1
    10    5    6 ar
    11    5   26 1
    12    6   27 1
    13    7    8 1
    14    7   28 1
    15    7   29 1
    16    8    9 1
    17    8   30 1
    18    8   31 1
    19    9   10 1
    20    9   32 1
    21    9   33 1
    22   10   15 1
    23   10   11 1
    24   11   12 1
    25   11   34 1
    26   11   35 1
    27   12   13 1
    28   12   36 1
    29   12   37 1
    30   13   14 1
    31   13   16 1
    32   14   15 1
    33   14   38 1
    34   14   39 1
    35   15   40 1
    36   15   41 1
    37   16   17 1
    38   16   42 1
    39   16   43 1
    40   17   22 ar
    41   17   18 ar
    42   18   19 ar
    43   18   44 1
    44   19   20 ar
    45   19   45 1
    46   20   21 ar
    47   20   46 1
    48   21   22 ar
    49   21   47 1
    50   22   48 1
@<TRIPOS>MOLECULE
ZINC22920326
   52    55     0     0     0
SMALL
USER_CHARGES

@<TRIPOS>ATOM
      1 C1         -0.0187    1.5258    0.0104 C.3       1 <0>        -0.1827
      2 C2          0.0021   -0.0041    0.0020 C.3       1 <0>         0.0324
      3 H1          0.5123   -0.3556   -0.8948 H         1 <0>         0.1471
      4 C3         -1.4336   -0.5337    0.0128 C.3       1 <0>         0.0302
      5 N1         -1.4105   -2.0032    0.0241 N.3       1 <0>        -0.5388
      6 C4         -0.6807   -2.5048    1.1971 C.3       1 <0>         0.0254
      7 C5          0.7488   -1.9589    1.1765 C.3       1 <0>         0.0324
      8 H2          1.2551   -2.3004    0.2737 H         1 <0>         0.1469
      9 N2          0.7126   -0.4906    1.1920 N.4       1 <0>        -0.5065
     10 C6          1.5050   -2.4634    2.4072 C.3       1 <0>        -0.1830
     11 C7         -2.7725   -2.5515   -0.0226 C.3       1 <0>         0.0584
     12 C8         -2.7066   -4.0615   -0.2601 C.3       1 <0>        -0.1372
     13 C9         -4.1252   -4.6325   -0.3086 C.3       1 <0>         0.1179
     14 N3         -4.0621   -6.0784   -0.5361 N.pl3     1 <0>        -0.5074
     15 C10        -4.0541   -6.6836   -1.7801 C.ar      1 <0>         0.1407
     16 C11        -4.0985   -6.1695   -3.0725 C.ar      1 <0>        -0.1448
     17 C12        -4.0764   -7.0219   -4.1553 C.ar      1 <0>        -0.0811
     18 C13        -4.0101   -8.3944   -3.9712 C.ar      1 <0>        -0.1474
     19 C14        -3.9653   -8.9226   -2.6989 C.ar      1 <0>        -0.0594
     20 C15        -3.9865   -8.0726   -1.5959 C.ar      1 <0>        -0.1043
     21 C16        -3.9523   -8.3002   -0.1394 C.ar      1 <0>        -0.1029
     22 C17        -3.9960   -7.0338    0.4624 C.ar      1 <0>         0.1405
     23 C18        -3.9715   -6.9383    1.8504 C.ar      1 <0>        -0.1477
     24 C19        -3.9014   -8.0799    2.6195 C.ar      1 <0>        -0.0822
     25 C20        -3.8544   -9.3304    2.0229 C.ar      1 <0>        -0.1486
     26 C21        -3.8863   -9.4459    0.6497 C.ar      1 <0>        -0.0582
     27 H3          1.0039    1.9031    0.0027 H         1 <0>         0.0866
     28 H4         -0.5459    1.8868   -0.8726 H         1 <0>         0.1092
     29 H5         -0.5289    1.8773    0.9072 H         1 <0>         0.0810
     30 H6         -1.9483   -0.1712    0.9026 H         1 <0>         0.0620
     31 H7         -1.9566   -0.1850   -0.8777 H         1 <0>         0.1241
     32 H8         -1.1830   -2.1748    2.1064 H         1 <0>         0.0623
     33 H9         -0.6544   -3.5942    1.1706 H         1 <0>         0.1243
     34 H10         1.6553   -0.1311    1.1910 H         1 <0>         0.4302
     35 H11         1.5320   -3.5530    2.3957 H         1 <0>         0.1089
     36 H12         2.5232   -2.0745    2.3925 H         1 <0>         0.0870
     37 H13         0.9987   -2.1220    3.3100 H         1 <0>         0.0811
     38 H14        -3.2762   -2.3542    0.9237 H         1 <0>         0.0503
     39 H15        -3.3265   -2.0799   -0.8342 H         1 <0>         0.0927
     40 H16        -2.2029   -4.2588   -1.2064 H         1 <0>         0.0839
     41 H17        -2.1527   -4.5331    0.5516 H         1 <0>         0.0704
     42 H18        -4.6289   -4.4352    0.6377 H         1 <0>         0.0866
     43 H19        -4.6792   -4.1609   -1.1203 H         1 <0>         0.0898
     44 H20        -4.1507   -5.1019   -3.2271 H         1 <0>         0.1199
     45 H21        -4.1115   -6.6172   -5.1560 H         1 <0>         0.1299
     46 H22        -3.9937   -9.0520   -4.8277 H         1 <0>         0.1294
     47 H23        -3.9144   -9.9921   -2.5578 H         1 <0>         0.1270
     48 H24        -4.0070   -5.9689    2.3254 H         1 <0>         0.1171
     49 H25        -3.8827   -7.9995    3.6964 H         1 <0>         0.1287
     50 H26        -3.7989  -10.2175    2.6363 H         1 <0>         0.1291
     51 H27        -3.8488  -10.4210    0.1871 H         1 <0>         0.1273
     52 H28         0.2335   -0.1749    2.0220 H         1 <0>         0.4215
@<TRIPOS>BOND
     1    1    2 1
     2    1   27 1
     3    1   28 1
     4    1   29 1
     5    2    3 1
     6    2    9 1
     7    2    4 1
     8    4    5 1
     9    4   30 1
    10    4   31 1
    11    5    6 1
    12    5   11 1
    13    6    7 1
    14    6   32 1
    15    6   33 1
    16    7    8 1
    17    7    9 1
    18    7   10 1
    19    9   34 1
    20    9   52 1
    21   10   35 1
    22   10   36 1
    23   10   37 1
    24   11   12 1
    25   11   38 1
    26   11   39 1
    27   12   13 1
    28   12   40 1
    29   12   41 1
    30   13   14 1
    31   13   42 1
    32   13   43 1
    33   14   22 1
    34   14   15 1
    35   15   20 ar
    36   15   16 ar
    37   16   17 ar
    38   16   44 1
    39   17   18 ar
    40   17   45 1
    41   18   19 ar
    42   18   46 1
    43   19   20 ar
    44   19   47 1
    45   20   21 1
    46   21   26 ar
    47   21   22 ar
    48   22   23 ar
    49   23   24 ar
    50   23   48 1
    51   24   25 ar
    52   24   49 1
    53   25   26 ar
    54   25   50 1
    55   26   51 1
@<TRIPOS>MOLECULE
ZINC00056526
   36    37     0     0     0
SMALL
USER_CHARGES

@<TRIPOS>ATOM
      1 C1          2.5037    1.7126    3.2140 C.3       1 <0>        -0.1237
      2 C2          1.1585    2.2578    2.8086 C.ar      1 <0>        -0.0710
      3 C3          0.9379    3.6213    2.8044 C.ar      1 <0>        -0.1067
      4 C4         -0.2961    4.1223    2.4330 C.ar      1 <0>        -0.0798
      5 C5         -1.3133    3.2607    2.0647 C.ar      1 <0>        -0.1093
      6 C6         -1.0991    1.8965    2.0664 C.ar      1 <0>        -0.0914
      7 C7          0.1412    1.3902    2.4334 C.ar      1 <0>         0.0607
      8 N1          0.3631    0.0092    2.4310 N.pl3     1 <0>        -0.6353
      9 C8          0.4090   -0.6826    3.6204 C.cat     1 <0>         0.7405
     10 N2          0.7150   -1.9495    3.6259 N.pl3     1 <0>        -0.7671
     11 N3          0.1317   -0.0363    4.8039 N.pl3     1 <0>        -0.6291
     12 C9          0.1332   -0.7493    6.0072 C.ar      1 <0>         0.0596
     13 C10         1.1662   -0.5736    6.9191 C.ar      1 <0>        -0.0907
     14 C11         1.1645   -1.2787    8.1063 C.ar      1 <0>        -0.1071
     15 C12         0.1360   -2.1594    8.3878 C.ar      1 <0>        -0.0804
     16 C13        -0.8935   -2.3370    7.4821 C.ar      1 <0>        -0.1047
     17 C14        -0.9010   -1.6301    6.2954 C.ar      1 <0>        -0.0763
     18 C15        -2.0269   -1.8192    5.3117 C.3       1 <0>        -0.1303
     19 H1          3.1435    1.6334    2.3352 H         1 <0>         0.0869
     20 H2          2.9640    2.3834    3.9394 H         1 <0>         0.0836
     21 H3          2.3764    0.7265    3.6608 H         1 <0>         0.0530
     22 H4          1.7300    4.2968    3.0918 H         1 <0>         0.1408
     23 H5         -0.4662    5.1889    2.4309 H         1 <0>         0.1404
     24 H6         -2.2763    3.6551    1.7758 H         1 <0>         0.1415
     25 H7         -1.8940    1.2242    1.7789 H         1 <0>         0.1367
     26 H8          0.4847   -0.4610    1.5914 H         1 <0>         0.4415
     27 H9          0.6889   -2.4511    4.4558 H         1 <0>         0.4432
     28 H10        -0.0647    0.9136    4.8032 H         1 <0>         0.4406
     29 H11         1.9701    0.1134    6.6995 H         1 <0>         0.1367
     30 H12         1.9674   -1.1426    8.8157 H         1 <0>         0.1422
     31 H13         0.1371   -2.7100    9.3170 H         1 <0>         0.1410
     32 H14        -1.6949   -3.0260    7.7046 H         1 <0>         0.1415
     33 H15        -1.7760   -2.6259    4.6230 H         1 <0>         0.0747
     34 H16        -2.9407   -2.0717    5.8496 H         1 <0>         0.0884
     35 H17        -2.1784   -0.8967    4.7512 H         1 <0>         0.0670
     36 H18         0.9688   -2.3908    2.8003 H         1 <0>         0.4426
@<TRIPOS>BOND
     1    1    2 1
     2    1   19 1
     3    1   20 1
     4    1   21 1
     5    2    7 ar
     6    2    3 ar
     7    3    4 ar
     8    3   22 1
     9    4    5 ar
    10    4   23 1
    11    5    6 ar
    12    5   24 1
    13    6    7 ar
    14    6   25 1
    15    7    8 1
    16    8    9 1
    17    8   26 1
    18    9   10 2
    19    9   11 1
    20   10   27 1
    21   10   36 1
    22   11   12 1
    23   11   28 1
    24   12   17 ar
    25   12   13 ar
    26   13   14 ar
    27   13   29 1
    28   14   15 ar
    29   14   30 1
    30   15   16 ar
    31   15   31 1
    32   16   17 ar
    33   16   32 1
    34   17   18 1
    35   18   33 1
    36   18   34 1
    37   18   35 1
@<TRIPOS>MOLECULE
ZINC02559943
   52    54     0     0     0
SMALL
USER_CHARGES

@<TRIPOS>ATOM
      1 C1         -0.1484    1.2567    0.3369 C.3       1 <0>        -0.1977
      2 C2          0.1706   -0.2098    0.0391 C.3       1 <0>        -0.0080
      3 H1         -0.7533   -0.7879    0.0295 H         1 <0>         0.1498
      4 C3          0.8531   -0.3162   -1.3261 C.3       1 <0>         0.1456
      5 H2          1.0517   -1.3638   -1.5523 H         1 <0>         0.1279
      6 C4          2.1524    0.4468   -1.2990 C.ar      1 <0>        -0.1759
      7 C5          2.1590    1.8074   -1.5453 C.ar      1 <0>        -0.0836
      8 C6          3.3487    2.5090   -1.5215 C.ar      1 <0>        -0.1341
      9 C7          4.5375    1.8475   -1.2499 C.ar      1 <0>         0.1334
     10 C8          4.5281    0.4824   -1.0026 C.ar      1 <0>        -0.1355
     11 C9          3.3351   -0.2138   -1.0224 C.ar      1 <0>        -0.1118
     12 O1          5.7093    2.5354   -1.2264 O.3       1 <0>        -0.4929
     13 O2         -0.0018    0.2342   -2.3302 O.3       1 <0>        -0.5230
     14 N1          1.0670   -0.7363    1.0770 N.4       1 <0>        -0.3763
     15 C10         1.3066   -2.1643    0.8360 C.3       1 <0>        -0.0160
     16 C11         2.3034   -2.6991    1.8665 C.3       1 <0>        -0.1426
     17 C12         1.7282   -2.5066    3.2727 C.3       1 <0>        -0.0936
     18 C13         1.4128   -1.0233    3.4859 C.3       1 <0>        -0.1447
     19 C14         0.4490   -0.5506    2.3954 C.3       1 <0>        -0.0124
     20 C15         2.7528   -2.9663    4.3119 C.3       1 <0>        -0.0742
     21 C16         2.1413   -2.8919    5.6872 C.ar      1 <0>        -0.0948
     22 C17         2.2468   -1.7299    6.4286 C.ar      1 <0>        -0.1217
     23 C18         1.6859   -1.6617    7.6902 C.ar      1 <0>        -0.1161
     24 C19         1.0192   -2.7552    8.2102 C.ar      1 <0>        -0.1161
     25 C20         0.9129   -3.9169    7.4686 C.ar      1 <0>        -0.1135
     26 C21         1.4701   -3.9837    6.2052 C.ar      1 <0>        -0.1158
     27 H3          0.7755    1.8348    0.3465 H         1 <0>         0.0880
     28 H4         -0.8135    1.6474   -0.4333 H         1 <0>         0.1071
     29 H5         -0.6346    1.3325    1.3095 H         1 <0>         0.0923
     30 H6          1.2333    2.3219   -1.7568 H         1 <0>         0.1324
     31 H7          3.3534    3.5716   -1.7147 H         1 <0>         0.1415
     32 H8          5.4523   -0.0348   -0.7909 H         1 <0>         0.1410
     33 H9          3.3267   -1.2757   -0.8257 H         1 <0>         0.1299
     34 H10         5.9388    2.8918   -0.3572 H         1 <0>         0.4013
     35 H11        -0.2209    1.1660   -2.1926 H         1 <0>         0.3846
     36 H12         0.3669   -2.7097    0.9231 H         1 <0>         0.1341
     37 H13         1.7130   -2.2999   -0.1663 H         1 <0>         0.1289
     38 H14         2.4786   -3.7598    1.6870 H         1 <0>         0.1161
     39 H15         3.2437   -2.1545    1.7802 H         1 <0>         0.0894
     40 H16         0.8147   -3.0921    3.3761 H         1 <0>         0.0925
     41 H17         0.9514   -0.8862    4.4638 H         1 <0>         0.1169
     42 H18         2.3345   -0.4439    3.4331 H         1 <0>         0.0872
     43 H19         0.2221    0.5051    2.5443 H         1 <0>         0.1330
     44 H20        -0.4724   -1.1304    2.4492 H         1 <0>         0.1307
     45 H21         3.0484   -3.9940    4.1008 H         1 <0>         0.0837
     46 H22         3.6294   -2.3199    4.2685 H         1 <0>         0.0782
     47 H23         2.7676   -0.8755    6.0222 H         1 <0>         0.1190
     48 H24         1.7688   -0.7541    8.2696 H         1 <0>         0.1243
     49 H25         0.5816   -2.7021    9.1962 H         1 <0>         0.1253
     50 H26         0.3923   -4.7714    7.8750 H         1 <0>         0.1254
     51 H27         1.3839   -4.8901    5.6243 H         1 <0>         0.1218
     52 H28         1.9449   -0.2400    1.0453 H         1 <0>         0.4189
@<TRIPOS>BOND
     1    1    2 1
     2    1   27 1
     3    1   28 1
     4    1   29 1
     5    2    3 1
     6    2    4 1
     7    2   14 1
     8    4    5 1
     9    4    6 1
    10    4   13 1
    11    6   11 ar
    12    6    7 ar
    13    7    8 ar
    14    7   30 1
    15    8    9 ar
    16    8   31 1
    17    9   10 ar
    18    9   12 1
    19   10   11 ar
    20   10   32 1
    21   11   33 1
    22   12   34 1
    23   13   35 1
    24   14   19 1
    25   14   15 1
    26   14   52 1
    27   15   16 1
    28   15   36 1
    29   15   37 1
    30   16   17 1
    31   16   38 1
    32   16   39 1
    33   17   18 1
    34   17   20 1
    35   17   40 1
    36   18   19 1
    37   18   41 1
    38   18   42 1
    39   19   43 1
    40   19   44 1
    41   20   21 1
    42   20   45 1
    43   20   46 1
    44   21   26 ar
    45   21   22 ar
    46   22   23 ar
    47   22   47 1
    48   23   24 ar
    49   23   48 1
    50   24   25 ar
    51   24   49 1
    52   25   26 ar
    53   25   50 1
    54   26   51 1
@<TRIPOS>MOLECULE
ZINC12495255
   55    56     0     0     0
SMALL
USER_CHARGES

@<TRIPOS>ATOM
      1 C1          1.4354   -1.2374   -2.2145 C.3       1 <0>        -0.1456
      2 C2          0.7466   -1.4502   -0.8650 C.3       1 <0>         0.0906
      3 H1          1.2894   -2.2036   -0.2942 H         1 <0>         0.0661
      4 C3         -0.6922   -1.9205   -1.0940 C.3       1 <0>         0.0231
      5 N1         -1.3725   -2.0491    0.2029 N.3       1 <0>        -0.5349
      6 C4         -1.3697   -0.7669    0.9220 C.3       1 <0>         0.0239
      7 C5          0.0759   -0.3081    1.1307 C.3       1 <0>         0.0906
      8 H2          0.5989   -1.0280    1.7603 H         1 <0>         0.0663
      9 O1          0.7312   -0.2191   -0.1373 O.3       1 <0>        -0.3800
     10 C6          0.0838    1.0637    1.8083 C.3       1 <0>        -0.1455
     11 C7         -2.7414   -2.5537    0.0316 C.3       1 <0>         0.0587
     12 C8         -2.6989   -4.0553   -0.2587 C.3       1 <0>        -0.0772
     13 H3         -2.0727   -4.2390   -1.1318 H         1 <0>         0.0702
     14 C9         -2.1180   -4.7921    0.9498 C.3       1 <0>        -0.1396
     15 C10        -4.1164   -4.5622   -0.5321 C.3       1 <0>        -0.0772
     16 C11        -4.0617   -6.0125   -0.9379 C.ar      1 <0>        -0.0811
     17 C12        -3.9259   -6.3526   -2.2709 C.ar      1 <0>        -0.1158
     18 C13        -3.8757   -7.6829   -2.6432 C.ar      1 <0>        -0.1135
     19 C14        -3.9608   -8.6732   -1.6824 C.ar      1 <0>        -0.0728
     20 C15        -4.0958   -8.3331   -0.3494 C.ar      1 <0>        -0.1199
     21 C16        -4.1416   -7.0027    0.0233 C.ar      1 <0>        -0.1112
     22 C17        -3.9071  -10.1235   -2.0884 C.3       1 <0>        -0.0306
     23 C18        -2.5796  -10.4066   -2.7944 C.3       1 <0>        -0.1388
     24 C19        -4.0213  -11.0060   -0.8438 C.3       1 <0>        -0.1449
     25 C20        -5.0660  -10.4302   -3.0391 C.3       1 <0>        -0.1389
     26 H4          2.4592   -0.9011   -2.0509 H         1 <0>         0.0670
     27 H5          1.4455   -2.1756   -2.7693 H         1 <0>         0.0725
     28 H6          0.8922   -0.4839   -2.7849 H         1 <0>         0.0623
     29 H7         -1.2193   -1.1927   -1.7109 H         1 <0>         0.0422
     30 H8         -0.6834   -2.8871   -1.5978 H         1 <0>         0.0861
     31 H9         -1.9076   -0.0205    0.3374 H         1 <0>         0.0422
     32 H10        -1.8555   -0.8913    1.8898 H         1 <0>         0.0854
     33 H11        -0.4183    0.9952    2.7734 H         1 <0>         0.0728
     34 H12         1.1132    1.3897    1.9566 H         1 <0>         0.0670
     35 H13        -0.4380    1.7834    1.1776 H         1 <0>         0.0623
     36 H14        -3.3110   -2.3760    0.9438 H         1 <0>         0.0752
     37 H15        -3.2179   -2.0360   -0.8009 H         1 <0>         0.0372
     38 H16        -1.9863   -5.8459    0.7040 H         1 <0>         0.0522
     39 H17        -1.1536   -4.3569    1.2116 H         1 <0>         0.0659
     40 H18        -2.8002   -4.6986    1.7947 H         1 <0>         0.0482
     41 H19        -4.7192   -4.4599    0.3703 H         1 <0>         0.0722
     42 H20        -4.5630   -3.9766   -1.3357 H         1 <0>         0.0693
     43 H21        -3.8593   -5.5789   -3.0215 H         1 <0>         0.1178
     44 H22        -3.7703   -7.9486   -3.6847 H         1 <0>         0.1186
     45 H23        -4.1626   -9.1068    0.4012 H         1 <0>         0.1248
     46 H24        -4.2433   -6.7370    1.0652 H         1 <0>         0.1195
     47 H25        -1.7540  -10.1881   -2.1171 H         1 <0>         0.0561
     48 H26        -2.5408  -11.4556   -3.0880 H         1 <0>         0.0586
     49 H27        -2.4983   -9.7779   -3.6810 H         1 <0>         0.0564
     50 H28        -4.9670  -10.8043   -0.3408 H         1 <0>         0.0584
     51 H29        -3.9824  -12.0550   -1.1374 H         1 <0>         0.0584
     52 H30        -3.1957  -10.7875   -0.1665 H         1 <0>         0.0585
     53 H31        -4.9846   -9.8015   -3.9258 H         1 <0>         0.0564
     54 H32        -5.0271  -11.4792   -3.3327 H         1 <0>         0.0586
     55 H33        -6.0117  -10.2285   -2.5362 H         1 <0>         0.0560
@<TRIPOS>BOND
     1    1    2 1
     2    1   26 1
     3    1   27 1
     4    1   28 1
     5    2    3 1
     6    2    9 1
     7    2    4 1
     8    4    5 1
     9    4   29 1
    10    4   30 1
    11    5    6 1
    12    5   11 1
    13    6    7 1
    14    6   31 1
    15    6   32 1
    16    7    8 1
    17    7    9 1
    18    7   10 1
    19   10   33 1
    20   10   34 1
    21   10   35 1
    22   11   12 1
    23   11   36 1
    24   11   37 1
    25   12   13 1
    26   12   14 1
    27   12   15 1
    28   14   38 1
    29   14   39 1
    30   14   40 1
    31   15   16 1
    32   15   41 1
    33   15   42 1
    34   16   21 ar
    35   16   17 ar
    36   17   18 ar
    37   17   43 1
    38   18   19 ar
    39   18   44 1
    40   19   20 ar
    41   19   22 1
    42   20   21 ar
    43   20   45 1
    44   21   46 1
    45   22   23 1
    46   22   24 1
    47   22   25 1
    48   23   47 1
    49   23   48 1
    50   23   49 1
    51   24   50 1
    52   24   51 1
    53   24   52 1
    54   25   53 1
    55   25   54 1
    56   25   55 1
@<TRIPOS>MOLECULE
ZINC13545798
   55    56     0     0     0
SMALL
USER_CHARGES
(2S,6R)-4-[(2R)-3-(4-tert-butylphenyl)-2-methyl-propyl]-2,6-dimethyl-morpholine
@<TRIPOS>ATOM
      1 C1         -0.4258    0.8450   -2.4851 C.3       1 <0>        -0.1461
      2 C2         -0.9692    1.4960   -1.2115 C.3       1 <0>         0.0914
      3 H1         -0.8949    2.5922   -1.2643 H         1 <0>         0.0660
      4 C3         -0.2208    0.9433    0.0044 C.3       1 <0>         0.0243
      5 N1         -0.7983    1.5132    1.2304 N.3       1 <0>        -0.5338
      6 C4         -2.2296    1.1926    1.3299 C.3       1 <0>         0.0219
      7 C5         -2.9578    1.7428    0.1006 C.3       1 <0>         0.0915
      8 H2         -2.8463    2.8344    0.0229 H         1 <0>         0.0656
      9 O1         -2.3626    1.2014   -1.0817 O.3       1 <0>        -0.3901
     10 C6         -4.4335    1.3433    0.1597 C.3       1 <0>        -0.1463
     11 C7         -0.0713    1.0506    2.4202 C.3       1 <0>         0.0585
     12 C8         -0.5425    1.8386    3.6441 C.3       1 <0>        -0.0804
     13 H3         -1.6318    1.7305    3.7528 H         1 <0>         0.0715
     14 C9         -0.1921    3.3171    3.4646 C.3       1 <0>        -0.1412
     15 C10         0.1512    1.2985    4.8963 C.3       1 <0>        -0.0780
     16 C11        -0.4027    1.9902    6.1153 C.ar      1 <0>        -0.0811
     17 C12         0.1864    3.1520    6.5781 C.ar      1 <0>        -0.1114
     18 C13        -0.3246    3.7891    7.6934 C.ar      1 <0>        -0.1200
     19 C14        -1.4186    3.2591    8.3517 C.ar      1 <0>        -0.0725
     20 C15        -2.0041    2.0943    7.8921 C.ar      1 <0>        -0.1135
     21 C16        -1.4963    1.4599    6.7738 C.ar      1 <0>        -0.1159
     22 C17        -1.9724    3.9509    9.5706 C.3       1 <0>        -0.0299
     23 C18        -1.9027    3.0039   10.7703 C.3       1 <0>        -0.1405
     24 C19        -1.1482    5.2063    9.8632 C.3       1 <0>        -0.1465
     25 C20        -3.4287    4.3448    9.3158 C.3       1 <0>        -0.1403
     26 H4          0.6459    1.0720   -2.5843 H         1 <0>         0.0736
     27 H5         -0.9665    1.2396   -3.3580 H         1 <0>         0.0675
     28 H6         -0.5662   -0.2445   -2.4286 H         1 <0>         0.0635
     29 H7         -0.3165   -0.1523    0.0269 H         1 <0>         0.0433
     30 H8          0.8424    1.2172   -0.0638 H         1 <0>         0.0863
     31 H9         -2.3585    0.1012    1.3765 H         1 <0>         0.0428
     32 H10        -2.6455    1.6501    2.2397 H         1 <0>         0.0889
     33 H11        -4.9561    1.7389   -0.7237 H         1 <0>         0.0675
     34 H12        -4.8892    1.7573    1.0713 H         1 <0>         0.0734
     35 H13        -4.5161    0.2465    0.1741 H         1 <0>         0.0635
     36 H14        -0.2671   -0.0206    2.5761 H         1 <0>         0.0348
     37 H15         1.0076    1.2088    2.2753 H         1 <0>         0.0777
     38 H16        -0.5309    3.8836    4.3445 H         1 <0>         0.0540
     39 H17        -0.6907    3.7054    2.5642 H         1 <0>         0.0644
     40 H18         0.8972    3.4252    3.3560 H         1 <0>         0.0501
     41 H19        -0.0271    0.2160    4.9762 H         1 <0>         0.0699
     42 H20         1.2326    1.4878    4.8269 H         1 <0>         0.0733
     43 H21         1.0435    3.5638    6.0662 H         1 <0>         0.1198
     44 H22         0.1331    4.6990    8.0526 H         1 <0>         0.1249
     45 H23        -2.8585    1.6800    8.4066 H         1 <0>         0.1186
     46 H24        -1.9538    0.5499    6.4148 H         1 <0>         0.1177
     47 H25        -2.3069    3.5089   11.6600 H         1 <0>         0.0592
     48 H26        -0.8557    2.7206   10.9534 H         1 <0>         0.0565
     49 H27        -2.4953    2.1014   10.5599 H         1 <0>         0.0568
     50 H28        -1.5525    5.7112   10.7529 H         1 <0>         0.0589
     51 H29        -1.1984    5.8871    9.0007 H         1 <0>         0.0590
     52 H30        -0.1012    4.9231   10.0464 H         1 <0>         0.0589
     53 H31        -3.8330    4.8498   10.2055 H         1 <0>         0.0591
     54 H32        -4.0212    3.4422    9.1055 H         1 <0>         0.0568
     55 H33        -3.4788    5.0256    8.4532 H         1 <0>         0.0565
@<TRIPOS>BOND
     1    1    2 1
     2    1   26 1
     3    1   27 1
     4    1   28 1
     5    2    3 1
     6    2    9 1
     7    2    4 1
     8    4    5 1
     9    4   29 1
    10    4   30 1
    11    5    6 1
    12    5   11 1
    13    6    7 1
    14    6   31 1
    15    6   32 1
    16    7    8 1
    17    7    9 1
    18    7   10 1
    19   10   33 1
    20   10   34 1
    21   10   35 1
    22   11   12 1
    23   11   36 1
    24   11   37 1
    25   12   13 1
    26   12   14 1
    27   12   15 1
    28   14   38 1
    29   14   39 1
    30   14   40 1
    31   15   16 1
    32   15   41 1
    33   15   42 1
    34   16   21 ar
    35   16   17 ar
    36   17   18 ar
    37   17   43 1
    38   18   19 ar
    39   18   44 1
    40   19   20 ar
    41   19   22 1
    42   20   21 ar
    43   20   45 1
    44   21   46 1
    45   22   23 1
    46   22   24 1
    47   22   25 1
    48   23   47 1
    49   23   48 1
    50   23   49 1
    51   24   50 1
    52   24   51 1
    53   24   52 1
    54   25   53 1
    55   25   54 1
    56   25   55 1
@<TRIPOS>MOLECULE
ZINC19842127
   53    55     0     0     0
SMALL
USER_CHARGES
1-[(3-methoxyphenyl)methyl]-4-(3-phenylpropyl)piperazine
@<TRIPOS>ATOM
      1 C1         -5.6676   -1.9729   -1.2830 C.3       1 <0>         0.0214
      2 O1         -4.3658   -1.4774   -1.6021 O.3       1 <0>        -0.3177
      3 C2         -3.5225   -1.2441   -0.5623 C.ar      1 <0>         0.1313
      4 C3         -3.9392   -1.4877    0.7386 C.ar      1 <0>        -0.2000
      5 C4         -3.0800   -1.2502    1.7937 C.ar      1 <0>        -0.0749
      6 C5         -1.8036   -0.7752    1.5540 C.ar      1 <0>        -0.1335
      7 C6         -1.3878   -0.5267    0.2592 C.ar      1 <0>        -0.0558
      8 C7         -2.2435   -0.7626   -0.7996 C.ar      1 <0>        -0.1540
      9 C8          0.0021   -0.0041    0.0020 C.3       1 <0>         0.0966
     10 N1         -0.0178    1.4648    0.0101 N.3       1 <0>        -0.5335
     11 C9         -0.7990    1.9871   -1.1198 C.3       1 <0>         0.0186
     12 C10        -0.8618    3.5137   -1.0307 C.3       1 <0>        -0.0021
     13 N2          0.5028    4.0590   -1.0408 N.4       1 <0>        -0.4008
     14 C11         1.2840    3.5367    0.0891 C.3       1 <0>         0.0017
     15 C12         1.3468    2.0100   -0.0000 C.3       1 <0>         0.0245
     16 C13         0.4829    5.5278   -1.0327 C.3       1 <0>        -0.0069
     17 C14        -0.1186    6.0369   -2.3441 C.3       1 <0>        -0.1436
     18 C15        -0.1394    7.5668   -2.3357 C.3       1 <0>        -0.0741
     19 C16        -0.7319    8.0682   -3.6274 C.ar      1 <0>        -0.1001
     20 C17         0.0877    8.3211   -4.7116 C.ar      1 <0>        -0.1157
     21 C18        -0.4564    8.7765   -5.8979 C.ar      1 <0>        -0.1155
     22 C19        -1.8188    8.9885   -5.9971 C.ar      1 <0>        -0.1134
     23 C20        -2.6376    8.7411   -4.9112 C.ar      1 <0>        -0.1154
     24 C21        -2.0942    8.2807   -3.7264 C.ar      1 <0>        -0.1158
     25 H1         -6.2425   -2.1166   -2.2097 H         1 <0>         0.1068
     26 H2         -6.1872   -1.2494   -0.6376 H         1 <0>         0.0589
     27 H3         -5.5751   -2.9340   -0.7561 H         1 <0>         0.0604
     28 H4         -4.9344   -1.8629    0.9260 H         1 <0>         0.1319
     29 H5         -3.4038   -1.4400    2.8064 H         1 <0>         0.1298
     30 H6         -1.1317   -0.5944    2.3800 H         1 <0>         0.1260
     31 H7         -1.9169   -0.5719   -1.8113 H         1 <0>         0.1261
     32 H8          0.6812   -0.3660    0.7881 H         1 <0>         0.1005
     33 H9          0.3524   -0.3607   -0.9779 H         1 <0>         0.0582
     34 H10        -0.3184    1.6934   -2.0647 H         1 <0>         0.0613
     35 H11        -1.8180    1.5744   -1.0830 H         1 <0>         0.1276
     36 H12        -1.4218    3.9085   -1.8912 H         1 <0>         0.1359
     37 H13        -1.3676    3.8061   -0.0987 H         1 <0>         0.1351
     38 H14         2.3030    3.9494    0.0522 H         1 <0>         0.1364
     39 H15         0.8035    3.8304    1.0340 H         1 <0>         0.1353
     40 H16         1.9061    1.6142    0.8605 H         1 <0>         0.1248
     41 H17         1.8520    1.7166   -0.9320 H         1 <0>         0.0618
     42 H18        -0.1265    5.8816   -0.1880 H         1 <0>         0.1289
     43 H19         1.5099    5.9079   -0.9284 H         1 <0>         0.1324
     44 H20         0.4909    5.6831   -3.1887 H         1 <0>         0.0883
     45 H21        -1.1456    5.6568   -2.4484 H         1 <0>         0.0880
     46 H22        -0.7488    7.9206   -1.4910 H         1 <0>         0.0831
     47 H23         0.8876    7.9469   -2.2314 H         1 <0>         0.0834
     48 H24         1.1526    8.1593   -4.6328 H         1 <0>         0.1213
     49 H25         0.1834    8.9701   -6.7462 H         1 <0>         0.1260
     50 H26        -2.2434    9.3479   -6.9228 H         1 <0>         0.1264
     51 H27        -3.7020    8.9071   -4.9885 H         1 <0>         0.1259
     52 H28        -2.7339    8.0874   -2.8781 H         1 <0>         0.1210
     53 H29         0.9916    3.7339   -1.9711 H         1 <0>         0.4373
@<TRIPOS>BOND
     1    1    2 1
     2    1   25 1
     3    1   26 1
     4    1   27 1
     5    2    3 1
     6    3    8 ar
     7    3    4 ar
     8    4    5 ar
     9    4   28 1
    10    5    6 ar
    11    5   29 1
    12    6    7 ar
    13    6   30 1
    14    7    8 ar
    15    7    9 1
    16    8   31 1
    17    9   10 1
    18    9   32 1
    19    9   33 1
    20   10   15 1
    21   10   11 1
    22   11   12 1
    23   11   34 1
    24   11   35 1
    25   12   13 1
    26   12   36 1
    27   12   37 1
    28   13   14 1
    29   13   16 1
    30   13   53 1
    31   14   15 1
    32   14   38 1
    33   14   39 1
    34   15   40 1
    35   15   41 1
    36   16   17 1
    37   16   42 1
    38   16   43 1
    39   17   18 1
    40   17   44 1
    41   17   45 1
    42   18   19 1
    43   18   46 1
    44   18   47 1
    45   19   24 ar
    46   19   20 ar
    47   20   21 ar
    48   20   48 1
    49   21   22 ar
    50   21   49 1
    51   22   23 ar
    52   22   50 1
    53   23   24 ar
    54   23   51 1
    55   24   52 1
@<TRIPOS>MOLECULE
ZINC19842127
   53    55     0     0     0
SMALL
USER_CHARGES
1-[(3-methoxyphenyl)methyl]-4-(3-phenylpropyl)piperazine
@<TRIPOS>ATOM
      1 C1         -5.6676   -1.9729   -1.2830 C.3       1 <0>         0.0183
      2 O1         -4.3658   -1.4774   -1.6021 O.3       1 <0>        -0.3113
      3 C2         -3.5225   -1.2441   -0.5623 C.ar      1 <0>         0.1386
      4 C3         -3.9392   -1.4877    0.7386 C.ar      1 <0>        -0.1788
      5 C4         -3.0800   -1.2502    1.7937 C.ar      1 <0>        -0.0703
      6 C5         -1.8036   -0.7752    1.5540 C.ar      1 <0>        -0.1352
      7 C6         -1.3878   -0.5267    0.2592 C.ar      1 <0>        -0.1182
      8 C7         -2.2435   -0.7626   -0.7996 C.ar      1 <0>        -0.1358
      9 C8          0.0021   -0.0041    0.0020 C.3       1 <0>         0.0479
     10 N1         -0.0178    1.4648    0.0101 N.4       1 <0>        -0.3990
     11 C9         -0.7990    1.9871   -1.1198 C.3       1 <0>        -0.0044
     12 C10        -0.8618    3.5137   -1.0307 C.3       1 <0>         0.0227
     13 N2          0.5028    4.0590   -1.0408 N.3       1 <0>        -0.5388
     14 C11         1.2840    3.5367    0.0891 C.3       1 <0>         0.0251
     15 C12         1.3468    2.0100   -0.0000 C.3       1 <0>         0.0007
     16 C13         0.4829    5.5278   -1.0327 C.3       1 <0>         0.0529
     17 C14        -0.1186    6.0369   -2.3441 C.3       1 <0>        -0.1119
     18 C15        -0.1394    7.5668   -2.3357 C.3       1 <0>        -0.0805
     19 C16        -0.7319    8.0682   -3.6274 C.ar      1 <0>        -0.0885
     20 C17         0.0877    8.3211   -4.7116 C.ar      1 <0>        -0.1167
     21 C18        -0.4564    8.7765   -5.8979 C.ar      1 <0>        -0.1160
     22 C19        -1.8188    8.9885   -5.9971 C.ar      1 <0>        -0.1202
     23 C20        -2.6376    8.7411   -4.9112 C.ar      1 <0>        -0.1172
     24 C21        -2.0942    8.2807   -3.7264 C.ar      1 <0>        -0.1192
     25 H1         -6.2425   -2.1166   -2.2097 H         1 <0>         0.1124
     26 H2         -6.1872   -1.2494   -0.6376 H         1 <0>         0.0626
     27 H3         -5.5751   -2.9340   -0.7561 H         1 <0>         0.0635
     28 H4         -4.9344   -1.8629    0.9260 H         1 <0>         0.1404
     29 H5         -3.4038   -1.4400    2.8064 H         1 <0>         0.1388
     30 H6         -1.1317   -0.5944    2.3800 H         1 <0>         0.1333
     31 H7         -1.9169   -0.5719   -1.8113 H         1 <0>         0.1388
     32 H8          0.6812   -0.3660    0.7881 H         1 <0>         0.1409
     33 H9          0.3524   -0.3607   -0.9779 H         1 <0>         0.1360
     34 H10        -0.3184    1.6934   -2.0647 H         1 <0>         0.1353
     35 H11        -1.8180    1.5744   -1.0830 H         1 <0>         0.1356
     36 H12        -1.4218    3.9085   -1.8912 H         1 <0>         0.1249
     37 H13        -1.3676    3.8061   -0.0987 H         1 <0>         0.0597
     38 H14         2.3030    3.9494    0.0522 H         1 <0>         0.1240
     39 H15         0.8035    3.8304    1.0340 H         1 <0>         0.0602
     40 H16         1.9061    1.6142    0.8605 H         1 <0>         0.1366
     41 H17         1.8520    1.7166   -0.9320 H         1 <0>         0.1362
     42 H18        -0.1265    5.8816   -0.1880 H         1 <0>         0.0472
     43 H19         1.5099    5.9079   -0.9284 H         1 <0>         0.0900
     44 H20         0.4909    5.6831   -3.1887 H         1 <0>         0.0780
     45 H21        -1.1456    5.6568   -2.4484 H         1 <0>         0.0647
     46 H22        -0.7488    7.9206   -1.4910 H         1 <0>         0.0728
     47 H23         0.8876    7.9469   -2.2314 H         1 <0>         0.0764
     48 H24         1.1526    8.1593   -4.6328 H         1 <0>         0.1210
     49 H25         0.1834    8.9701   -6.7462 H         1 <0>         0.1239
     50 H26        -2.2434    9.3479   -6.9228 H         1 <0>         0.1237
     51 H27        -3.7020    8.9071   -4.9885 H         1 <0>         0.1230
     52 H28        -2.7339    8.0874   -2.8781 H         1 <0>         0.1186
     53 H29        -0.5066    1.7900    0.9403 H         1 <0>         0.4373
@<TRIPOS>BOND
     1    1    2 1
     2    1   25 1
     3    1   26 1
     4    1   27 1
     5    2    3 1
     6    3    8 ar
     7    3    4 ar
     8    4    5 ar
     9    4   28 1
    10    5    6 ar
    11    5   29 1
    12    6    7 ar
    13    6   30 1
    14    7    8 ar
    15    7    9 1
    16    8   31 1
    17    9   10 1
    18    9   32 1
    19    9   33 1
    20   10   15 1
    21   10   11 1
    22   10   53 1
    23   11   12 1
    24   11   34 1
    25   11   35 1
    26   12   13 1
    27   12   36 1
    28   12   37 1
    29   13   14 1
    30   13   16 1
    31   14   15 1
    32   14   38 1
    33   14   39 1
    34   15   40 1
    35   15   41 1
    36   16   17 1
    37   16   42 1
    38   16   43 1
    39   17   18 1
    40   17   44 1
    41   17   45 1
    42   18   19 1
    43   18   46 1
    44   18   47 1
    45   19   24 ar
    46   19   20 ar
    47   20   21 ar
    48   20   48 1
    49   21   22 ar
    50   21   49 1
    51   22   23 ar
    52   22   50 1
    53   23   24 ar
    54   23   51 1
    55   24   52 1
@<TRIPOS>MOLECULE
ZINC19842127
   52    54     0     0     0
SMALL
USER_CHARGES
1-[(3-methoxyphenyl)methyl]-4-(3-phenylpropyl)piperazine
@<TRIPOS>ATOM
      1 C1         -5.6676   -1.9729   -1.2830 C.3       1 <0>         0.0240
      2 O1         -4.3658   -1.4774   -1.6021 O.3       1 <0>        -0.3182
      3 C2         -3.5225   -1.2441   -0.5623 C.ar      1 <0>         0.1265
      4 C3         -3.9392   -1.4877    0.7386 C.ar      1 <0>        -0.2081
      5 C4         -3.0800   -1.2502    1.7937 C.ar      1 <0>        -0.0801
      6 C5         -1.8036   -0.7752    1.5540 C.ar      1 <0>        -0.1356
      7 C6         -1.3878   -0.5267    0.2592 C.ar      1 <0>        -0.0388
      8 C7         -2.2435   -0.7626   -0.7996 C.ar      1 <0>        -0.1474
      9 C8          0.0021   -0.0041    0.0020 C.3       1 <0>         0.0922
     10 N1         -0.0178    1.4648    0.0101 N.3       1 <0>        -0.5330
     11 C9         -0.7990    1.9871   -1.1198 C.3       1 <0>         0.0517
     12 C10        -0.8618    3.5137   -1.0307 C.3       1 <0>         0.0549
     13 N2          0.5028    4.0590   -1.0408 N.3       1 <0>        -0.5397
     14 C11         1.2840    3.5367    0.0891 C.3       1 <0>         0.0568
     15 C12         1.3468    2.0100   -0.0000 C.3       1 <0>         0.0561
     16 C13         0.4829    5.5278   -1.0327 C.3       1 <0>         0.0548
     17 C14        -0.1186    6.0369   -2.3441 C.3       1 <0>        -0.1098
     18 C15        -0.1394    7.5668   -2.3357 C.3       1 <0>        -0.0814
     19 C16        -0.7319    8.0682   -3.6274 C.ar      1 <0>        -0.0799
     20 C17         0.0877    8.3211   -4.7116 C.ar      1 <0>        -0.1175
     21 C18        -0.4564    8.7765   -5.8979 C.ar      1 <0>        -0.1180
     22 C19        -1.8188    8.9885   -5.9971 C.ar      1 <0>        -0.1258
     23 C20        -2.6376    8.7411   -4.9112 C.ar      1 <0>        -0.1182
     24 C21        -2.0942    8.2807   -3.7264 C.ar      1 <0>        -0.1187
     25 H1         -6.2425   -2.1166   -2.2097 H         1 <0>         0.1023
     26 H2         -6.1872   -1.2494   -0.6376 H         1 <0>         0.0565
     27 H3         -5.5751   -2.9340   -0.7561 H         1 <0>         0.0565
     28 H4         -4.9344   -1.8629    0.9260 H         1 <0>         0.1270
     29 H5         -3.4038   -1.4400    2.8064 H         1 <0>         0.1252
     30 H6         -1.1317   -0.5944    2.3800 H         1 <0>         0.1243
     31 H7         -1.9169   -0.5719   -1.8113 H         1 <0>         0.1270
     32 H8          0.6812   -0.3660    0.7881 H         1 <0>         0.0881
     33 H9          0.3524   -0.3607   -0.9779 H         1 <0>         0.0473
     34 H10        -0.3184    1.6934   -2.0647 H         1 <0>         0.0429
     35 H11        -1.8180    1.5744   -1.0830 H         1 <0>         0.0851
     36 H12        -1.4218    3.9085   -1.8912 H         1 <0>         0.0822
     37 H13        -1.3676    3.8061   -0.0987 H         1 <0>         0.0418
     38 H14         2.3030    3.9494    0.0522 H         1 <0>         0.0809
     39 H15         0.8035    3.8304    1.0340 H         1 <0>         0.0429
     40 H16         1.9061    1.6142    0.8605 H         1 <0>         0.0816
     41 H17         1.8520    1.7166   -0.9320 H         1 <0>         0.0444
     42 H18        -0.1265    5.8816   -0.1880 H         1 <0>         0.0350
     43 H19         1.5099    5.9079   -0.9284 H         1 <0>         0.0759
     44 H20         0.4909    5.6831   -3.1887 H         1 <0>         0.0729
     45 H21        -1.1456    5.6568   -2.4484 H         1 <0>         0.0643
     46 H22        -0.7488    7.9206   -1.4910 H         1 <0>         0.0716
     47 H23         0.8876    7.9469   -2.2314 H         1 <0>         0.0738
     48 H24         1.1526    8.1593   -4.6328 H         1 <0>         0.1210
     49 H25         0.1834    8.9701   -6.7462 H         1 <0>         0.1213
     50 H26        -2.2434    9.3479   -6.9228 H         1 <0>         0.1206
     51 H27        -3.7020    8.9071   -4.9885 H         1 <0>         0.1210
     52 H28        -2.7339    8.0874   -2.8781 H         1 <0>         0.1198
@<TRIPOS>BOND
     1    1    2 1
     2    1   25 1
     3    1   26 1
     4    1   27 1
     5    2    3 1
     6    3    8 ar
     7    3    4 ar
     8    4    5 ar
     9    4   28 1
    10    5    6 ar
    11    5   29 1
    12    6    7 ar
    13    6   30 1
    14    7    8 ar
    15    7    9 1
    16    8   31 1
    17    9   10 1
    18    9   32 1
    19    9   33 1
    20   10   15 1
    21   10   11 1
    22   11   12 1
    23   11   34 1
    24   11   35 1
    25   12   13 1
    26   12   36 1
    27   12   37 1
    28   13   14 1
    29   13   16 1
    30   14   15 1
    31   14   38 1
    32   14   39 1
    33   15   40 1
    34   15   41 1
    35   16   17 1
    36   16   42 1
    37   16   43 1
    38   17   18 1
    39   17   44 1
    40   17   45 1
    41   18   19 1
    42   18   46 1
    43   18   47 1
    44   19   24 ar
    45   19   20 ar
    46   20   21 ar
    47   20   48 1
    48   21   22 ar
    49   21   49 1
    50   22   23 ar
    51   22   50 1
    52   23   24 ar
    53   23   51 1
    54   24   52 1
@<TRIPOS>MOLECULE
ZINC19854109
   51    53     0     0     0
SMALL
USER_CHARGES
1-[(4-nitrophenyl)methyl]-4-(3-phenylpropyl)piperazine
@<TRIPOS>ATOM
      1 C1         -0.7929    6.2904    1.2930 C.ar      1 <0>        -0.1129
      2 C2         -1.8259    5.5884    0.7006 C.ar      1 <0>        -0.1152
      3 C3         -1.8070    4.2062    0.6926 C.ar      1 <0>        -0.1160
      4 C4         -0.7552    3.5260    1.2775 C.ar      1 <0>        -0.1009
      5 C5          0.2749    4.2280    1.8750 C.ar      1 <0>        -0.1157
      6 C6          0.2586    5.6102    1.8784 C.ar      1 <0>        -0.1153
      7 C7         -0.7348    2.0192    1.2692 C.3       1 <0>        -0.0742
      8 C8         -0.0187    1.5258    0.0104 C.3       1 <0>        -0.1434
      9 C9          0.0021   -0.0041    0.0020 C.3       1 <0>        -0.0072
     10 N1          0.6897   -0.4778   -1.2066 N.4       1 <0>        -0.4011
     11 C10        -0.0731   -0.1351   -2.4150 C.3       1 <0>        -0.0027
     12 C11         0.7128   -0.5739   -3.6528 C.3       1 <0>         0.0166
     13 N2          0.9626   -2.0205   -3.5838 N.3       1 <0>        -0.5349
     14 C12         1.7254   -2.3632   -2.3754 C.3       1 <0>         0.0253
     15 C13         0.9394   -1.9244   -1.1376 C.3       1 <0>         0.0009
     16 C14         1.6502   -2.4942   -4.7924 C.3       1 <0>         0.0882
     17 C15         0.7352   -2.3480   -5.9808 C.ar      1 <0>        -0.0445
     18 C16        -0.1047   -3.3861   -6.3383 C.ar      1 <0>        -0.0929
     19 C17        -0.9472   -3.2503   -7.4258 C.ar      1 <0>        -0.0510
     20 C18        -0.9429   -2.0801   -8.1616 C.ar      1 <0>        -0.0344
     21 C19        -0.0996   -1.0438   -7.8070 C.ar      1 <0>        -0.0526
     22 C20         0.7398   -1.1779   -6.7169 C.ar      1 <0>        -0.1179
     23 N3         -1.8417   -1.9364   -9.3289 N.pl3     1 <0>         0.0197
     24 O1         -1.8382   -0.9052   -9.9769 O.2       1 <0>        -0.1496
     25 O2         -2.5848   -2.8495   -9.6413 O.3       1 <0>        -0.1476
     26 H1         -0.8075    7.3703    1.2990 H         1 <0>         0.1268
     27 H2         -2.6476    6.1198    0.2436 H         1 <0>         0.1263
     28 H3         -2.6140    3.6578    0.2297 H         1 <0>         0.1209
     29 H4          1.0944    3.6965    2.3358 H         1 <0>         0.1212
     30 H5          1.0654    6.1587    2.3416 H         1 <0>         0.1263
     31 H6         -0.2028    1.6548    2.1604 H         1 <0>         0.0837
     32 H7         -1.7668    1.6385    1.2770 H         1 <0>         0.0832
     33 H8         -0.5508    1.8902   -0.8807 H         1 <0>         0.0877
     34 H9          1.0133    1.9066    0.0025 H         1 <0>         0.0886
     35 H10         0.5341   -0.3684    0.8932 H         1 <0>         0.1335
     36 H11        -1.0299   -0.3849    0.0098 H         1 <0>         0.1295
     37 H12        -1.0443   -0.6512   -2.3942 H         1 <0>         0.1357
     38 H13        -0.2363    0.9522   -2.4495 H         1 <0>         0.1379
     39 H14         0.1305   -0.3441   -4.5573 H         1 <0>         0.1240
     40 H15         1.6719   -0.0364   -3.6878 H         1 <0>         0.0651
     41 H16         1.8886   -3.4505   -2.3409 H         1 <0>         0.1270
     42 H17         2.6966   -1.8471   -2.3962 H         1 <0>         0.0646
     43 H18         1.5211   -2.1533   -0.2325 H         1 <0>         0.1385
     44 H19        -0.0203   -2.4609   -1.1022 H         1 <0>         0.1362
     45 H20         2.5599   -1.8974   -4.9544 H         1 <0>         0.0667
     46 H21         1.9233   -3.5525   -4.6679 H         1 <0>         0.1077
     47 H22        -0.1052   -4.3019   -5.7659 H         1 <0>         0.1500
     48 H23        -1.6064   -4.0598   -7.7026 H         1 <0>         0.1588
     49 H24        -0.0962   -0.1295   -8.3818 H         1 <0>         0.1575
     50 H25         1.3989   -0.3684   -6.4400 H         1 <0>         0.1438
     51 H26         1.6624    0.0327   -1.2627 H         1 <0>         0.4379
@<TRIPOS>BOND
     1    1    6 ar
     2    1    2 ar
     3    1   26 1
     4    2    3 ar
     5    2   27 1
     6    3    4 ar
     7    3   28 1
     8    4    5 ar
     9    4    7 1
    10    5    6 ar
    11    5   29 1
    12    6   30 1
    13    7    8 1
    14    7   31 1
    15    7   32 1
    16    8    9 1
    17    8   33 1
    18    8   34 1
    19    9   10 1
    20    9   35 1
    21    9   36 1
    22   10   15 1
    23   10   11 1
    24   10   51 1
    25   11   12 1
    26   11   37 1
    27   11   38 1
    28   12   13 1
    29   12   39 1
    30   12   40 1
    31   13   14 1
    32   13   16 1
    33   14   15 1
    34   14   41 1
    35   14   42 1
    36   15   43 1
    37   15   44 1
    38   16   17 1
    39   16   45 1
    40   16   46 1
    41   17   22 ar
    42   17   18 ar
    43   18   19 ar
    44   18   47 1
    45   19   20 ar
    46   19   48 1
    47   20   21 ar
    48   20   23 1
    49   21   22 ar
    50   21   49 1
    51   22   50 1
    52   23   24 2
    53   23   25 1
@<TRIPOS>MOLECULE
ZINC19854109
   51    53     0     0     0
SMALL
USER_CHARGES
1-[(4-nitrophenyl)methyl]-4-(3-phenylpropyl)piperazine
@<TRIPOS>ATOM
      1 C1         -0.7929    6.2904    1.2930 C.ar      1 <0>        -0.1197
      2 C2         -1.8259    5.5884    0.7006 C.ar      1 <0>        -0.1169
      3 C3         -1.8070    4.2062    0.6926 C.ar      1 <0>        -0.1193
      4 C4         -0.7552    3.5260    1.2775 C.ar      1 <0>        -0.0893
      5 C5          0.2749    4.2280    1.8750 C.ar      1 <0>        -0.1167
      6 C6          0.2586    5.6102    1.8784 C.ar      1 <0>        -0.1159
      7 C7         -0.7348    2.0192    1.2692 C.3       1 <0>        -0.0806
      8 C8         -0.0187    1.5258    0.0104 C.3       1 <0>        -0.1118
      9 C9          0.0021   -0.0041    0.0020 C.3       1 <0>         0.0525
     10 N1          0.6897   -0.4778   -1.2066 N.3       1 <0>        -0.5384
     11 C10        -0.0731   -0.1351   -2.4150 C.3       1 <0>         0.0215
     12 C11         0.7128   -0.5739   -3.6528 C.3       1 <0>        -0.0063
     13 N2          0.9626   -2.0205   -3.5838 N.4       1 <0>        -0.4005
     14 C12         1.7254   -2.3632   -2.3754 C.3       1 <0>         0.0010
     15 C13         0.9394   -1.9244   -1.1376 C.3       1 <0>         0.0242
     16 C14         1.6502   -2.4942   -4.7924 C.3       1 <0>         0.0414
     17 C15         0.7352   -2.3480   -5.9808 C.ar      1 <0>        -0.1118
     18 C16        -0.1047   -3.3861   -6.3383 C.ar      1 <0>        -0.0916
     19 C17        -0.9472   -3.2503   -7.4258 C.ar      1 <0>        -0.0501
     20 C18        -0.9429   -2.0801   -8.1616 C.ar      1 <0>        -0.0114
     21 C19        -0.0996   -1.0438   -7.8070 C.ar      1 <0>        -0.0507
     22 C20         0.7398   -1.1779   -6.7169 C.ar      1 <0>        -0.0945
     23 N3         -1.8417   -1.9364   -9.3289 N.pl3     1 <0>         0.0119
     24 O1         -1.8382   -0.9052   -9.9769 O.2       1 <0>        -0.1352
     25 O2         -2.5848   -2.8495   -9.6413 O.3       1 <0>        -0.1356
     26 H1         -0.8075    7.3703    1.2990 H         1 <0>         0.1241
     27 H2         -2.6476    6.1198    0.2436 H         1 <0>         0.1233
     28 H3         -2.6140    3.6578    0.2297 H         1 <0>         0.1184
     29 H4          1.0944    3.6965    2.3358 H         1 <0>         0.1209
     30 H5          1.0654    6.1587    2.3416 H         1 <0>         0.1241
     31 H6         -0.2028    1.6548    2.1604 H         1 <0>         0.0767
     32 H7         -1.7668    1.6385    1.2770 H         1 <0>         0.0730
     33 H8         -0.5508    1.8902   -0.8807 H         1 <0>         0.0643
     34 H9          1.0133    1.9066    0.0025 H         1 <0>         0.0783
     35 H10         0.5341   -0.3684    0.8932 H         1 <0>         0.0911
     36 H11        -1.0299   -0.3849    0.0098 H         1 <0>         0.0481
     37 H12        -1.0443   -0.6512   -2.3942 H         1 <0>         0.0606
     38 H13        -0.2363    0.9522   -2.4495 H         1 <0>         0.1270
     39 H14         0.1305   -0.3441   -4.5573 H         1 <0>         0.1323
     40 H15         1.6719   -0.0364   -3.6878 H         1 <0>         0.1391
     41 H16         1.8886   -3.4505   -2.3409 H         1 <0>         0.1387
     42 H17         2.6966   -1.8471   -2.3962 H         1 <0>         0.1385
     43 H18         1.5211   -2.1533   -0.2325 H         1 <0>         0.1261
     44 H19        -0.0203   -2.4609   -1.1022 H         1 <0>         0.0612
     45 H20         2.5599   -1.8974   -4.9544 H         1 <0>         0.1440
     46 H21         1.9233   -3.5525   -4.6679 H         1 <0>         0.1478
     47 H22        -0.1052   -4.3019   -5.7659 H         1 <0>         0.1570
     48 H23        -1.6064   -4.0598   -7.7026 H         1 <0>         0.1671
     49 H24        -0.0962   -0.1295   -8.3818 H         1 <0>         0.1671
     50 H25         1.3989   -0.3684   -6.4400 H         1 <0>         0.1563
     51 H26        -0.0101   -2.5311   -3.5277 H         1 <0>         0.4385
@<TRIPOS>BOND
     1    1    6 ar
     2    1    2 ar
     3    1   26 1
     4    2    3 ar
     5    2   27 1
     6    3    4 ar
     7    3   28 1
     8    4    5 ar
     9    4    7 1
    10    5    6 ar
    11    5   29 1
    12    6   30 1
    13    7    8 1
    14    7   31 1
    15    7   32 1
    16    8    9 1
    17    8   33 1
    18    8   34 1
    19    9   10 1
    20    9   35 1
    21    9   36 1
    22   10   15 1
    23   10   11 1
    24   11   12 1
    25   11   37 1
    26   11   38 1
    27   12   13 1
    28   12   39 1
    29   12   40 1
    30   13   14 1
    31   13   16 1
    32   13   51 1
    33   14   15 1
    34   14   41 1
    35   14   42 1
    36   15   43 1
    37   15   44 1
    38   16   17 1
    39   16   45 1
    40   16   46 1
    41   17   22 ar
    42   17   18 ar
    43   18   19 ar
    44   18   47 1
    45   19   20 ar
    46   19   48 1
    47   20   21 ar
    48   20   23 1
    49   21   22 ar
    50   21   49 1
    51   22   50 1
    52   23   24 2
    53   23   25 1
@<TRIPOS>MOLECULE
ZINC19854109
   50    52     0     0     0
SMALL
USER_CHARGES
1-[(4-nitrophenyl)methyl]-4-(3-phenylpropyl)piperazine
@<TRIPOS>ATOM
      1 C1         -0.7929    6.2904    1.2930 C.ar      1 <0>        -0.1252
      2 C2         -1.8259    5.5884    0.7006 C.ar      1 <0>        -0.1180
      3 C3         -1.8070    4.2062    0.6926 C.ar      1 <0>        -0.1188
      4 C4         -0.7552    3.5260    1.2775 C.ar      1 <0>        -0.0808
      5 C5          0.2749    4.2280    1.8750 C.ar      1 <0>        -0.1175
      6 C6          0.2586    5.6102    1.8784 C.ar      1 <0>        -0.1179
      7 C7         -0.7348    2.0192    1.2692 C.3       1 <0>        -0.0815
      8 C8         -0.0187    1.5258    0.0104 C.3       1 <0>        -0.1096
      9 C9          0.0021   -0.0041    0.0020 C.3       1 <0>         0.0545
     10 N1          0.6897   -0.4778   -1.2066 N.3       1 <0>        -0.5394
     11 C10        -0.0731   -0.1351   -2.4150 C.3       1 <0>         0.0537
     12 C11         0.7128   -0.5739   -3.6528 C.3       1 <0>         0.0496
     13 N2          0.9626   -2.0205   -3.5838 N.3       1 <0>        -0.5337
     14 C12         1.7254   -2.3632   -2.3754 C.3       1 <0>         0.0568
     15 C13         0.9394   -1.9244   -1.1376 C.3       1 <0>         0.0557
     16 C14         1.6502   -2.4942   -4.7924 C.3       1 <0>         0.0830
     17 C15         0.7352   -2.3480   -5.9808 C.ar      1 <0>        -0.0245
     18 C16        -0.1047   -3.3861   -6.3383 C.ar      1 <0>        -0.0973
     19 C17        -0.9472   -3.2503   -7.4258 C.ar      1 <0>        -0.0533
     20 C18        -0.9429   -2.0801   -8.1616 C.ar      1 <0>        -0.0450
     21 C19        -0.0996   -1.0438   -7.8070 C.ar      1 <0>        -0.0534
     22 C20         0.7398   -1.1779   -6.7169 C.ar      1 <0>        -0.1145
     23 N3         -1.8417   -1.9364   -9.3289 N.pl3     1 <0>         0.0267
     24 O1         -1.8382   -0.9052   -9.9769 O.2       1 <0>        -0.1588
     25 O2         -2.5848   -2.8495   -9.6413 O.3       1 <0>        -0.1584
     26 H1         -0.8075    7.3703    1.2990 H         1 <0>         0.1210
     27 H2         -2.6476    6.1198    0.2436 H         1 <0>         0.1214
     28 H3         -2.6140    3.6578    0.2297 H         1 <0>         0.1197
     29 H4          1.0944    3.6965    2.3358 H         1 <0>         0.1209
     30 H5          1.0654    6.1587    2.3416 H         1 <0>         0.1216
     31 H6         -0.2028    1.6548    2.1604 H         1 <0>         0.0740
     32 H7         -1.7668    1.6385    1.2770 H         1 <0>         0.0717
     33 H8         -0.5508    1.8902   -0.8807 H         1 <0>         0.0640
     34 H9          1.0133    1.9066    0.0025 H         1 <0>         0.0731
     35 H10         0.5341   -0.3684    0.8932 H         1 <0>         0.0770
     36 H11        -1.0299   -0.3849    0.0098 H         1 <0>         0.0359
     37 H12        -1.0443   -0.6512   -2.3942 H         1 <0>         0.0426
     38 H13        -0.2363    0.9522   -2.4495 H         1 <0>         0.0844
     39 H14         0.1305   -0.3441   -4.5573 H         1 <0>         0.0815
     40 H15         1.6719   -0.0364   -3.6878 H         1 <0>         0.0470
     41 H16         1.8886   -3.4505   -2.3409 H         1 <0>         0.0840
     42 H17         2.6966   -1.8471   -2.3962 H         1 <0>         0.0473
     43 H18         1.5211   -2.1533   -0.2325 H         1 <0>         0.0832
     44 H19        -0.0203   -2.4609   -1.1022 H         1 <0>         0.0439
     45 H20         2.5599   -1.8974   -4.9544 H         1 <0>         0.0561
     46 H21         1.9233   -3.5525   -4.6679 H         1 <0>         0.0956
     47 H22        -0.1052   -4.3019   -5.7659 H         1 <0>         0.1485
     48 H23        -1.6064   -4.0598   -7.7026 H         1 <0>         0.1545
     49 H24        -0.0962   -0.1295   -8.3818 H         1 <0>         0.1541
     50 H25         1.3989   -0.3684   -6.4400 H         1 <0>         0.1448
@<TRIPOS>BOND
     1    1    6 ar
     2    1    2 ar
     3    1   26 1
     4    2    3 ar
     5    2   27 1
     6    3    4 ar
     7    3   28 1
     8    4    5 ar
     9    4    7 1
    10    5    6 ar
    11    5   29 1
    12    6   30 1
    13    7    8 1
    14    7   31 1
    15    7   32 1
    16    8    9 1
    17    8   33 1
    18    8   34 1
    19    9   10 1
    20    9   35 1
    21    9   36 1
    22   10   15 1
    23   10   11 1
    24   11   12 1
    25   11   37 1
    26   11   38 1
    27   12   13 1
    28   12   39 1
    29   12   40 1
    30   13   14 1
    31   13   16 1
    32   14   15 1
    33   14   41 1
    34   14   42 1
    35   15   43 1
    36   15   44 1
    37   16   17 1
    38   16   45 1
    39   16   46 1
    40   17   22 ar
    41   17   18 ar
    42   18   19 ar
    43   18   47 1
    44   19   20 ar
    45   19   48 1
    46   20   21 ar
    47   20   23 1
    48   21   22 ar
    49   21   49 1
    50   22   50 1
    51   23   24 2
    52   23   25 1
@<TRIPOS>MOLECULE
ZINC22931097
   66    69     0     0     0
SMALL
USER_CHARGES

@<TRIPOS>ATOM
      1 C1         -1.3529   -6.7248   -2.5894 C.3       1 <0>         0.0258
      2 O1         -1.2856   -6.2669   -1.2374 O.3       1 <0>        -0.3143
      3 C2         -0.1182   -5.6987   -0.8358 C.ar      1 <0>         0.1286
      4 C3          0.9333   -5.5820   -1.7294 C.ar      1 <0>        -0.2102
      5 C4          2.1186   -5.0028   -1.3200 C.ar      1 <0>        -0.0819
      6 C5          2.2463   -4.5419   -0.0255 C.ar      1 <0>        -0.1604
      7 C6          1.1941   -4.6562    0.8742 C.ar      1 <0>        -0.0405
      8 C7          0.0111   -5.2319    0.4709 C.ar      1 <0>        -0.1032
      9 C8         -1.1668   -5.3976    1.3949 C.3       1 <0>        -0.0728
     10 C9         -1.0324   -4.4781    2.6070 C.3       1 <0>        -0.1206
     11 C10         0.3563   -4.6880    3.2220 C.3       1 <0>        -0.1147
     12 C11         1.4030   -4.1247    2.2682 C.3       1 <0>        -0.0421
     13 H1          1.3142   -3.0384    2.2558 H         1 <0>         0.0815
     14 C12         2.8028   -4.5103    2.7507 C.3       1 <0>        -0.1136
     15 C13         3.0678   -3.8666    4.1132 C.3       1 <0>        -0.1180
     16 C14         4.5113   -4.1454    4.5368 C.3       1 <0>         0.0539
     17 N1          4.7658   -3.5275    5.8450 N.3       1 <0>        -0.5383
     18 C15         4.7104   -2.0615    5.7547 C.3       1 <0>         0.0227
     19 C16         4.9209   -1.4595    7.1458 C.3       1 <0>        -0.0060
     20 N2          6.2243   -1.8859    7.6719 N.4       1 <0>        -0.3844
     21 C17         6.2555   -3.3505    7.7794 C.3       1 <0>        -0.0057
     22 C18         6.0561   -3.9683    6.3936 C.3       1 <0>         0.0267
     23 C19         6.4337   -1.2932    8.9996 C.3       1 <0>         0.0266
     24 C20         6.4031    0.2324    8.8876 C.3       1 <0>        -0.1406
     25 C21         6.6213    0.8497   10.2704 C.3       1 <0>        -0.1173
     26 C22         7.9789    0.4057   10.8188 C.3       1 <0>        -0.1316
     27 C23         8.0095   -1.1199   10.9307 C.3       1 <0>        -0.1173
     28 C24         7.7913   -1.7372    9.5479 C.3       1 <0>        -0.1406
     29 H2         -0.5864   -7.4819   -2.7551 H         1 <0>         0.0564
     30 H3         -2.3361   -7.1557   -2.7785 H         1 <0>         0.1030
     31 H4         -1.1875   -5.8861   -3.2657 H         1 <0>         0.0565
     32 H5          0.8271   -5.9427   -2.7418 H         1 <0>         0.1289
     33 H6          2.9434   -4.9112   -2.0112 H         1 <0>         0.1243
     34 H7          3.1737   -4.0881    0.2913 H         1 <0>         0.1212
     35 H8         -2.0826   -5.1521    0.8574 H         1 <0>         0.0776
     36 H9         -1.2156   -6.4328    1.7328 H         1 <0>         0.0743
     37 H10        -1.1420   -3.4398    2.2940 H         1 <0>         0.0649
     38 H11        -1.7998   -4.7237    3.3410 H         1 <0>         0.0702
     39 H12         0.4150   -4.1726    4.1806 H         1 <0>         0.0677
     40 H13         0.5369   -5.7533    3.3657 H         1 <0>         0.0667
     41 H14         2.8699   -5.5944    2.8418 H         1 <0>         0.0698
     42 H15         3.5440   -4.1593    2.0327 H         1 <0>         0.0687
     43 H16         2.9112   -2.7902    4.0432 H         1 <0>         0.0633
     44 H17         2.3849   -4.2859    4.8521 H         1 <0>         0.0794
     45 H18         4.6680   -5.2218    4.6068 H         1 <0>         0.0885
     46 H19         5.1942   -3.7262    3.7979 H         1 <0>         0.0461
     47 H20         5.4933   -1.7086    5.0834 H         1 <0>         0.0594
     48 H21         3.7369   -1.7574    5.3703 H         1 <0>         0.1255
     49 H22         4.8943   -0.3719    7.0787 H         1 <0>         0.1359
     50 H23         4.1300   -1.8018    7.8132 H         1 <0>         0.1371
     51 H24         7.2183   -3.6648    8.1822 H         1 <0>         0.1361
     52 H25         5.4578   -3.6831    8.4436 H         1 <0>         0.1372
     53 H26         6.0643   -5.0552    6.4754 H         1 <0>         0.1231
     54 H27         6.8612   -3.6468    5.7329 H         1 <0>         0.0592
     55 H28         5.6438   -1.6240    9.6739 H         1 <0>         0.1370
     56 H29         7.1931    0.5631    8.2133 H         1 <0>         0.0853
     57 H30         5.4360    0.5487    8.4970 H         1 <0>         0.0873
     58 H31         6.5995    1.9366   10.1907 H         1 <0>         0.0846
     59 H32         5.8313    0.5190   10.9447 H         1 <0>         0.0746
     60 H33         8.7689    0.7365   10.1445 H         1 <0>         0.0698
     61 H34         8.1343    0.8455   11.8039 H         1 <0>         0.0796
     62 H35         8.9767   -1.4362   11.3214 H         1 <0>         0.0846
     63 H36         7.2195   -1.4506   11.6050 H         1 <0>         0.0746
     64 H37         7.8131   -2.8241    9.6277 H         1 <0>         0.0873
     65 H38         8.5813   -1.4065    8.8736 H         1 <0>         0.0853
     66 H39         6.9554   -1.5791    7.0479 H         1 <0>         0.4173
@<TRIPOS>BOND
     1    1    2 1
     2    1   29 1
     3    1   30 1
     4    1   31 1
     5    2    3 1
     6    3    8 ar
     7    3    4 ar
     8    4    5 ar
     9    4   32 1
    10    5    6 ar
    11    5   33 1
    12    6    7 ar
    13    6   34 1
    14    7   12 1
    15    7    8 ar
    16    8    9 1
    17    9   10 1
    18    9   35 1
    19    9   36 1
    20   10   11 1
    21   10   37 1
    22   10   38 1
    23   11   12 1
    24   11   39 1
    25   11   40 1
    26   12   13 1
    27   12   14 1
    28   14   15 1
    29   14   41 1
    30   14   42 1
    31   15   16 1
    32   15   43 1
    33   15   44 1
    34   16   17 1
    35   16   45 1
    36   16   46 1
    37   17   22 1
    38   17   18 1
    39   18   19 1
    40   18   47 1
    41   18   48 1
    42   19   20 1
    43   19   49 1
    44   19   50 1
    45   20   21 1
    46   20   23 1
    47   20   66 1
    48   21   22 1
    49   21   51 1
    50   21   52 1
    51   22   53 1
    52   22   54 1
    53   23   28 1
    54   23   24 1
    55   23   55 1
    56   24   25 1
    57   24   56 1
    58   24   57 1
    59   25   26 1
    60   25   58 1
    61   25   59 1
    62   26   27 1
    63   26   60 1
    64   26   61 1
    65   27   28 1
    66   27   62 1
    67   27   63 1
    68   28   64 1
    69   28   65 1
@<TRIPOS>MOLECULE
ZINC00006788
   46    49     0     0     0
SMALL
USER_CHARGES

@<TRIPOS>ATOM
      1 C1         -0.0165    1.3620    0.0095 C.ar      1 <0>        -0.1208
      2 C2          1.1697    2.0834    0.0021 C.ar      1 <0>        -0.0901
      3 C3          2.3856    1.4362   -0.0134 C.ar      1 <0>        -0.1154
      4 C4          2.4281    0.0456   -0.0212 C.ar      1 <0>         0.0939
      5 C5          1.2234   -0.6807   -0.0132 C.ar      1 <0>        -0.0966
      6 C6          0.0021   -0.0041    0.0020 C.ar      1 <0>        -0.0931
      7 C7          1.6036   -2.0953   -0.0245 C.2       1 <0>        -0.2606
      8 C8          2.9451   -2.1410   -0.0380 C.2       1 <0>         0.1191
      9 N1          3.4551   -0.8713   -0.0363 N.pl3     1 <0>        -0.5786
     10 H1          4.3995   -0.6501   -0.0442 H         1 <0>         0.4282
     11 C9          0.6664   -3.2754   -0.0210 C.3       1 <0>         0.0845
     12 N2          0.1596   -3.5022   -1.3811 N.4       1 <0>        -0.3829
     13 C10         1.2726   -3.8821   -2.2594 C.3       1 <0>        -0.0028
     14 C11         0.7641   -4.0406   -3.6939 C.3       1 <0>        -0.1316
     15 C12        -0.3120   -5.1295   -3.7308 C.3       1 <0>         0.1751
     16 C13        -1.4329   -4.7591   -2.7554 C.3       1 <0>        -0.1700
     17 C14        -0.8430   -4.5740   -1.3556 C.3       1 <0>        -0.0025
     18 C15        -0.8727   -5.2368   -5.1255 C.ar      1 <0>        -0.1248
     19 C16        -0.9053   -4.1237   -5.9446 C.ar      1 <0>        -0.1005
     20 C17        -1.4194   -4.2215   -7.2238 C.ar      1 <0>        -0.1043
     21 C18        -1.9015   -5.4337   -7.6846 C.ar      1 <0>        -0.0252
     22 C19        -1.8686   -6.5474   -6.8643 C.ar      1 <0>        -0.1019
     23 C20        -1.3490   -6.4497   -5.5873 C.ar      1 <0>        -0.0934
     24 Cl1        -2.5479   -5.5571   -9.2910 Cl        1 <0>        -0.0510
     25 O1          0.2613   -6.3810   -3.3471 O.3       1 <0>        -0.5473
     26 H2         -0.9613    1.8849    0.0259 H         1 <0>         0.1312
     27 H3          1.1388    3.1630    0.0081 H         1 <0>         0.1352
     28 H4          3.3028    2.0064   -0.0198 H         1 <0>         0.1292
     29 H5         -0.9246   -0.5587    0.0082 H         1 <0>         0.1204
     30 H6          3.5346   -3.0459   -0.0490 H         1 <0>         0.1810
     31 H7          1.2002   -4.1623    0.3203 H         1 <0>         0.1328
     32 H8         -0.1692   -3.0739    0.6492 H         1 <0>         0.1337
     33 H9          2.0390   -3.1076   -2.2295 H         1 <0>         0.1297
     34 H10         1.6978   -4.8261   -1.9187 H         1 <0>         0.1359
     35 H11         0.3389   -3.0969   -4.0357 H         1 <0>         0.1023
     36 H12         1.5916   -4.3243   -4.3441 H         1 <0>         0.1207
     37 H13        -1.9037   -3.8304   -3.0777 H         1 <0>         0.0999
     38 H14        -2.1757   -5.5565   -2.7347 H         1 <0>         0.1167
     39 H15        -0.3727   -5.5033   -1.0342 H         1 <0>         0.1351
     40 H16        -1.6384   -4.3104   -0.6586 H         1 <0>         0.1322
     41 H17        -0.5293   -3.1774   -5.5847 H         1 <0>         0.1332
     42 H18        -1.4452   -3.3517   -7.8635 H         1 <0>         0.1402
     43 H19        -2.2450   -7.4938   -7.2233 H         1 <0>         0.1410
     44 H20        -1.3189   -7.3200   -4.9486 H         1 <0>         0.1325
     45 H21        -0.3653   -7.1175   -3.3482 H         1 <0>         0.3902
     46 H22        -0.2646   -2.6544   -1.7265 H         1 <0>         0.4197
@<TRIPOS>BOND
     1    1    6 ar
     2    1    2 ar
     3    1   26 1
     4    2    3 ar
     5    2   27 1
     6    3    4 ar
     7    3   28 1
     8    4    9 1
     9    4    5 ar
    10    5    6 ar
    11    5    7 1
    12    6   29 1
    13    7    8 2
    14    7   11 1
    15    8    9 1
    16    8   30 1
    17    9   10 1
    18   11   12 1
    19   11   31 1
    20   11   32 1
    21   12   17 1
    22   12   13 1
    23   12   46 1
    24   13   14 1
    25   13   33 1
    26   13   34 1
    27   14   15 1
    28   14   35 1
    29   14   36 1
    30   15   16 1
    31   15   18 1
    32   15   25 1
    33   16   17 1
    34   16   37 1
    35   16   38 1
    36   17   39 1
    37   17   40 1
    38   18   23 ar
    39   18   19 ar
    40   19   20 ar
    41   19   41 1
    42   20   21 ar
    43   20   42 1
    44   21   22 ar
    45   21   24 1
    46   22   23 ar
    47   22   43 1
    48   23   44 1
    49   25   45 1
@<TRIPOS>MOLECULE
ZINC23282949
   52    55     0     0     0
SMALL
USER_CHARGES
1-(4-phenylcyclohexyl)-4-(2-pyridyl)piperazine
@<TRIPOS>ATOM
      1 C1          0.0619   16.0817    1.0522 C.ar      1 <0>        -0.1155
      2 C2          1.2925   15.4591    0.9582 C.ar      1 <0>        -0.1146
      3 C3          1.3700   14.0790    0.9499 C.ar      1 <0>        -0.1147
      4 C4          0.2169   13.3214    1.0362 C.ar      1 <0>        -0.0911
      5 C5         -1.0141   13.9440    1.1250 C.ar      1 <0>        -0.1162
      6 C6         -1.0913   15.3241    1.1376 C.ar      1 <0>        -0.1162
      7 C7          0.3015   11.8168    1.0272 C.3       1 <0>        -0.0487
      8 C8         -0.2934   11.2649    2.3243 C.3       1 <0>        -0.1097
      9 C9         -0.2076    9.7373    2.3152 C.3       1 <0>        -0.1407
     10 C10        -0.9916    9.1895    1.1210 C.3       1 <0>         0.0339
     11 C11        -0.3967    9.7415   -0.1761 C.3       1 <0>        -0.1399
     12 C12        -0.4825   11.2690   -0.1670 C.3       1 <0>        -0.1102
     13 N1         -0.9092    7.7229    1.1123 N.4       1 <0>        -0.4014
     14 C13        -1.6526    7.1604   -0.0238 C.3       1 <0>        -0.0057
     15 C14        -1.6089    5.6322    0.0479 C.3       1 <0>         0.0394
     16 N2         -0.2096    5.1834    0.0320 N.pl3     1 <0>        -0.4765
     17 C15         0.5337    5.7459    1.1681 C.3       1 <0>         0.0291
     18 C16         0.4901    7.2741    1.0965 C.3       1 <0>        -0.0082
     19 C17        -0.1317    3.7956    0.0238 C.ar      1 <0>         0.2896
     20 C18         1.1136    3.1750    0.0085 C.ar      1 <0>        -0.1766
     21 C19         1.1764    1.7935    0.0005 C.ar      1 <0>        -0.0496
     22 C20        -0.0126    1.0758    0.0080 C.ar      1 <0>        -0.1794
     23 C21        -1.2132    1.7566    0.0173 C.ar      1 <0>         0.1283
     24 N3         -1.2430    3.0760    0.0301 N.ar      1 <0>        -0.5178
     25 H1          0.0013   17.1600    1.0594 H         1 <0>         0.1253
     26 H2          2.1934   16.0510    0.8915 H         1 <0>         0.1253
     27 H3          2.3315   13.5925    0.8764 H         1 <0>         0.1210
     28 H4         -1.9153   13.3521    1.1879 H         1 <0>         0.1181
     29 H5         -2.0527   15.8105    1.2114 H         1 <0>         0.1243
     30 H6          1.3588   11.5243    0.9464 H         1 <0>         0.0841
     31 H7          0.2703   11.6587    3.1829 H         1 <0>         0.0871
     32 H8         -1.3464   11.5726    2.4048 H         1 <0>         0.0777
     33 H9          0.8454    9.4297    2.2347 H         1 <0>         0.0890
     34 H10        -0.6352    9.3405    3.2477 H         1 <0>         0.0892
     35 H11        -2.0556    9.4566    1.2023 H         1 <0>         0.1365
     36 H12         0.6563    9.4339   -0.2565 H         1 <0>         0.0874
     37 H13        -0.9603    9.3477   -1.0347 H         1 <0>         0.0887
     38 H14        -1.5355   11.5766   -0.0865 H         1 <0>         0.0772
     39 H15        -0.0549   11.6658   -1.0996 H         1 <0>         0.0863
     40 H16        -2.6978    7.5007    0.0174 H         1 <0>         0.1400
     41 H17        -1.1941    7.4976   -0.9651 H         1 <0>         0.1370
     42 H18        -2.0927    5.2947    0.9764 H         1 <0>         0.0753
     43 H19        -2.1405    5.2092   -0.8172 H         1 <0>         0.1319
     44 H20         0.0751    5.4087    2.1094 H         1 <0>         0.0710
     45 H21         1.5789    5.4056    1.1270 H         1 <0>         0.1291
     46 H22         0.9732    7.6126    0.1681 H         1 <0>         0.1391
     47 H23         1.0209    7.6980    1.9617 H         1 <0>         0.1432
     48 H24         2.0187    3.7642    0.0027 H         1 <0>         0.1382
     49 H25         2.1287    1.2842   -0.0111 H         1 <0>         0.1439
     50 H26         0.0021   -0.0041    0.0020 H         1 <0>         0.1436
     51 H27        -2.1401    1.2025    0.0183 H         1 <0>         0.1644
     52 H28        -1.3739    7.3540    2.0386 H         1 <0>         0.4387
@<TRIPOS>BOND
     1    1    6 ar
     2    1    2 ar
     3    1   25 1
     4    2    3 ar
     5    2   26 1
     6    3    4 ar
     7    3   27 1
     8    4    5 ar
     9    4    7 1
    10    5    6 ar
    11    5   28 1
    12    6   29 1
    13    7   12 1
    14    7    8 1
    15    7   30 1
    16    8    9 1
    17    8   31 1
    18    8   32 1
    19    9   10 1
    20    9   33 1
    21    9   34 1
    22   10   11 1
    23   10   13 1
    24   10   35 1
    25   11   12 1
    26   11   36 1
    27   11   37 1
    28   12   38 1
    29   12   39 1
    30   13   18 1
    31   13   14 1
    32   13   52 1
    33   14   15 1
    34   14   40 1
    35   14   41 1
    36   15   16 1
    37   15   42 1
    38   15   43 1
    39   16   17 1
    40   16   19 1
    41   17   18 1
    42   17   44 1
    43   17   45 1
    44   18   46 1
    45   18   47 1
    46   19   24 ar
    47   19   20 ar
    48   20   21 ar
    49   20   48 1
    50   21   22 ar
    51   21   49 1
    52   22   23 ar
    53   22   50 1
    54   23   24 ar
    55   23   51 1
@<TRIPOS>MOLECULE
ZINC23282949
   52    55     0     0     0
SMALL
USER_CHARGES
1-(4-phenylcyclohexyl)-4-(2-pyridyl)piperazine
@<TRIPOS>ATOM
      1 C1          0.0619   16.0817    1.0522 C.ar      1 <0>        -0.1214
      2 C2          1.2925   15.4591    0.9582 C.ar      1 <0>        -0.1165
      3 C3          1.3700   14.0790    0.9499 C.ar      1 <0>        -0.1180
      4 C4          0.2169   13.3214    1.0362 C.ar      1 <0>        -0.0826
      5 C5         -1.0141   13.9440    1.1250 C.ar      1 <0>        -0.1158
      6 C6         -1.0913   15.3241    1.1376 C.ar      1 <0>        -0.1174
      7 C7          0.3015   11.8168    1.0272 C.3       1 <0>        -0.0457
      8 C8         -0.2934   11.2649    2.3243 C.3       1 <0>        -0.1110
      9 C9         -0.2076    9.7373    2.3152 C.3       1 <0>        -0.1129
     10 C10        -0.9916    9.1895    1.1210 C.3       1 <0>         0.0876
     11 C11        -0.3967    9.7415   -0.1761 C.3       1 <0>        -0.1511
     12 C12        -0.4825   11.2690   -0.1670 C.3       1 <0>        -0.1072
     13 N1         -0.9092    7.7229    1.1123 N.3       1 <0>        -0.5352
     14 C13        -1.6526    7.1604   -0.0238 C.3       1 <0>         0.0511
     15 C14        -1.6089    5.6322    0.0479 C.3       1 <0>         0.0187
     16 N2         -0.2096    5.1834    0.0320 N.pl3     1 <0>        -0.4716
     17 C15         0.5337    5.7459    1.1681 C.3       1 <0>         0.0545
     18 C16         0.4901    7.2741    1.0965 C.3       1 <0>         0.0378
     19 C17        -0.1317    3.7956    0.0238 C.ar      1 <0>         0.3617
     20 C18         1.1136    3.1750    0.0085 C.ar      1 <0>        -0.1501
     21 C19         1.1764    1.7935    0.0005 C.ar      1 <0>         0.0214
     22 C20        -0.0126    1.0758    0.0080 C.ar      1 <0>        -0.1504
     23 C21        -1.2132    1.7566    0.0173 C.ar      1 <0>         0.1410
     24 N3         -1.2430    3.0760    0.0301 N.ar      1 <0>        -0.5075
     25 H1          0.0013   17.1600    1.0594 H         1 <0>         0.1228
     26 H2          2.1934   16.0510    0.8915 H         1 <0>         0.1228
     27 H3          2.3315   13.5925    0.8764 H         1 <0>         0.1195
     28 H4         -1.9153   13.3521    1.1879 H         1 <0>         0.1189
     29 H5         -2.0527   15.8105    1.2114 H         1 <0>         0.1223
     30 H6          1.3588   11.5243    0.9464 H         1 <0>         0.0769
     31 H7          0.2703   11.6587    3.1829 H         1 <0>         0.0713
     32 H8         -1.3464   11.5726    2.4048 H         1 <0>         0.0688
     33 H9          0.8454    9.4297    2.2347 H         1 <0>         0.0658
     34 H10        -0.6352    9.3405    3.2477 H         1 <0>         0.0750
     35 H11        -2.0556    9.4566    1.2023 H         1 <0>         0.0912
     36 H12         0.6563    9.4339   -0.2565 H         1 <0>         0.0666
     37 H13        -0.9603    9.3477   -1.0347 H         1 <0>         0.0652
     38 H14        -1.5355   11.5766   -0.0865 H         1 <0>         0.0681
     39 H15        -0.0549   11.6658   -1.0996 H         1 <0>         0.0674
     40 H16        -2.6978    7.5007    0.0174 H         1 <0>         0.1020
     41 H17        -1.1941    7.4976   -0.9651 H         1 <0>         0.0621
     42 H18        -2.0927    5.2947    0.9764 H         1 <0>         0.0783
     43 H19        -2.1405    5.2092   -0.8172 H         1 <0>         0.0993
     44 H20         0.0751    5.4087    2.1094 H         1 <0>         0.0773
     45 H21         1.5789    5.4056    1.1270 H         1 <0>         0.1073
     46 H22         0.9732    7.6126    0.1681 H         1 <0>         0.0600
     47 H23         1.0209    7.6980    1.9617 H         1 <0>         0.1080
     48 H24         2.0187    3.7642    0.0027 H         1 <0>         0.1814
     49 H25         2.1287    1.2842   -0.0111 H         1 <0>         0.1767
     50 H26         0.0021   -0.0041    0.0020 H         1 <0>         0.1825
     51 H27        -2.1401    1.2025    0.0183 H         1 <0>         0.2063
     52 H28        -2.2223    3.5766    0.0464 H         1 <0>         0.4771
@<TRIPOS>BOND
     1    1    6 ar
     2    1    2 ar
     3    1   25 1
     4    2    3 ar
     5    2   26 1
     6    3    4 ar
     7    3   27 1
     8    4    5 ar
     9    4    7 1
    10    5    6 ar
    11    5   28 1
    12    6   29 1
    13    7   12 1
    14    7    8 1
    15    7   30 1
    16    8    9 1
    17    8   31 1
    18    8   32 1
    19    9   10 1
    20    9   33 1
    21    9   34 1
    22   10   11 1
    23   10   13 1
    24   10   35 1
    25   11   12 1
    26   11   36 1
    27   11   37 1
    28   12   38 1
    29   12   39 1
    30   13   18 1
    31   13   14 1
    32   14   15 1
    33   14   40 1
    34   14   41 1
    35   15   16 1
    36   15   42 1
    37   15   43 1
    38   16   17 1
    39   16   19 1
    40   17   18 1
    41   17   44 1
    42   17   45 1
    43   18   46 1
    44   18   47 1
    45   19   24 ar
    46   19   20 ar
    47   20   21 ar
    48   20   48 1
    49   21   22 ar
    50   21   49 1
    51   22   23 ar
    52   22   50 1
    53   23   24 ar
    54   23   51 1
    55   24   52 1
@<TRIPOS>MOLECULE
ZINC03201907
   46    49     0     0     0
SMALL
USER_CHARGES

@<TRIPOS>ATOM
      1 C1         -0.0178    1.4648    0.0101 C.3       1 <0>        -0.0541
      2 N1          0.0021   -0.0041    0.0020 N.4       1 <0>        -0.3704
      3 C2         -1.3750   -0.4988    0.0701 C.3       1 <0>        -0.0155
      4 C3         -1.3740   -2.0327    0.0720 C.3       1 <0>        -0.1325
      5 C4         -0.6000   -2.4924    1.3162 C.3       1 <0>        -0.0191
      6 C5         -0.6317   -4.0111    1.4284 C.3       1 <0>        -0.1087
      7 C6          0.1733   -4.4520    2.6537 C.3       1 <0>        -0.1256
      8 C7          1.6184   -3.9692    2.5143 C.3       1 <0>        -0.1195
      9 C8          1.6413   -2.4424    2.4159 C.3       1 <0>        -0.1147
     10 C9          0.8433   -1.9991    1.1883 C.3       1 <0>        -0.0848
     11 H1          1.2952   -2.4125    0.2866 H         1 <0>         0.1023
     12 C10         0.8089   -0.4721    1.1198 C.3       1 <0>         0.0267
     13 H2          1.8300   -0.1263    0.9584 H         1 <0>         0.1343
     14 C11         0.3561    0.0989    2.4510 C.3       1 <0>        -0.0880
     15 C12        -0.8070   -0.6582    3.0329 C.ar      1 <0>        -0.1438
     16 C13        -1.2457   -1.8607    2.5233 C.ar      1 <0>        -0.0305
     17 C14        -2.3081   -2.5221    3.1185 C.ar      1 <0>        -0.1475
     18 C15        -2.9456   -1.9742    4.2198 C.ar      1 <0>         0.1453
     19 C16        -2.5143   -0.7560    4.7243 C.ar      1 <0>        -0.2001
     20 C17        -1.4521   -0.1058    4.1333 C.ar      1 <0>        -0.0688
     21 O1         -3.9867   -2.6255    4.8018 O.3       1 <0>        -0.3119
     22 C18        -4.5935   -1.9982    5.9333 C.3       1 <0>         0.0236
     23 H3          1.0041    1.8418    0.0487 H         1 <0>         0.1253
     24 H4         -0.5046    1.8265   -0.8956 H         1 <0>         0.1263
     25 H5         -0.5678    1.8159    0.8832 H         1 <0>         0.1235
     26 H6         -1.8462   -0.1353    0.9832 H         1 <0>         0.1323
     27 H7         -1.9332   -0.1377   -0.7937 H         1 <0>         0.1313
     28 H8         -2.3981   -2.4035    0.1152 H         1 <0>         0.1146
     29 H9         -0.8828   -2.4037   -0.8275 H         1 <0>         0.0950
     30 H10        -1.6637   -4.3460    1.5323 H         1 <0>         0.0783
     31 H11        -0.1965   -4.4505    0.5308 H         1 <0>         0.0756
     32 H12        -0.2684   -4.0221    3.5527 H         1 <0>         0.0693
     33 H13         0.1589   -5.5395    2.7259 H         1 <0>         0.0726
     34 H14         2.1924   -4.2855    3.3853 H         1 <0>         0.0732
     35 H15         2.0591   -4.3977    1.6142 H         1 <0>         0.0669
     36 H16         1.1954   -2.0136    3.3134 H         1 <0>         0.0798
     37 H17         2.6718   -2.0996    2.3226 H         1 <0>         0.0738
     38 H18         1.1889    0.0610    3.1532 H         1 <0>         0.1169
     39 H19         0.0642    1.1393    2.3081 H         1 <0>         0.0939
     40 H20        -2.6412   -3.4697    2.7215 H         1 <0>         0.1386
     41 H21        -3.0097   -0.3180    5.5782 H         1 <0>         0.1351
     42 H22        -1.1179    0.8418    4.5290 H         1 <0>         0.1291
     43 H23        -3.8503   -1.8717    6.7206 H         1 <0>         0.0602
     44 H24        -4.9840   -1.0231    5.6422 H         1 <0>         0.0594
     45 H25        -5.4090   -2.6214    6.3003 H         1 <0>         0.1083
     46 H26         0.4207   -0.3210   -0.8596 H         1 <0>         0.4244
@<TRIPOS>BOND
     1    1    2 1
     2    1   23 1
     3    1   24 1
     4    1   25 1
     5    2   12 1
     6    2    3 1
     7    2   46 1
     8    3    4 1
     9    3   26 1
    10    3   27 1
    11    4    5 1
    12    4   28 1
    13    4   29 1
    14    5   10 1
    15    5   16 1
    16    5    6 1
    17    6    7 1
    18    6   30 1
    19    6   31 1
    20    7    8 1
    21    7   32 1
    22    7   33 1
    23    8    9 1
    24    8   34 1
    25    8   35 1
    26    9   10 1
    27    9   36 1
    28    9   37 1
    29   10   11 1
    30   10   12 1
    31   12   13 1
    32   12   14 1
    33   14   15 1
    34   14   38 1
    35   14   39 1
    36   15   20 ar
    37   15   16 ar
    38   16   17 ar
    39   17   18 ar
    40   17   40 1
    41   18   19 ar
    42   18   21 1
    43   19   20 ar
    44   19   41 1
    45   20   42 1
    46   21   22 1
    47   22   43 1
    48   22   44 1
    49   22   45 1
@<TRIPOS>MOLECULE
ZINC22931094
   66    69     0     0     0
SMALL
USER_CHARGES

@<TRIPOS>ATOM
      1 C1         -2.1863   -5.5479   -2.4920 C.3       1 <0>         0.0258
      2 O1         -0.9501   -5.2637   -1.8340 O.3       1 <0>        -0.3143
      3 C2         -1.0155   -4.9134   -0.5225 C.ar      1 <0>         0.1285
      4 C3         -2.2445   -4.8521    0.1126 C.ar      1 <0>        -0.2102
      5 C4         -2.3093   -4.4952    1.4455 C.ar      1 <0>        -0.0819
      6 C5         -1.1505   -4.1996    2.1341 C.ar      1 <0>        -0.1604
      7 C6          0.0845   -4.2583    1.5008 C.ar      1 <0>        -0.0408
      8 C7          0.1551   -4.6239    0.1760 C.ar      1 <0>        -0.1031
      9 C8          1.4605   -4.7296   -0.5680 C.3       1 <0>        -0.0727
     10 C9          2.5657   -3.9845    0.1776 C.3       1 <0>        -0.1215
     11 C10         2.5680   -4.4560    1.6365 C.3       1 <0>        -0.1142
     12 C11         1.3058   -3.9147    2.3129 C.3       1 <0>        -0.0420
     13 H1          1.3760   -2.8318    2.4158 H         1 <0>         0.0836
     14 C12         1.1824   -4.5455    3.7013 C.3       1 <0>        -0.1148
     15 C13         2.3561   -4.0941    4.5728 C.3       1 <0>        -0.1180
     16 C14         2.1657   -4.6199    5.9970 C.3       1 <0>         0.0539
     17 N1          3.2926   -4.1864    6.8337 N.3       1 <0>        -0.5383
     18 C15         3.2922   -2.7264    7.0027 C.3       1 <0>         0.0228
     19 C16         4.5118   -2.3111    7.8283 C.3       1 <0>        -0.0060
     20 N2          4.4647   -2.9729    9.1387 N.4       1 <0>        -0.3844
     21 C17         4.4906   -4.4299    8.9546 C.3       1 <0>        -0.0056
     22 C18         3.2707   -4.8628    8.1384 C.3       1 <0>         0.0267
     23 C19         5.6262   -2.5599    9.9377 C.3       1 <0>         0.0266
     24 C20         5.5985   -1.0424   10.1312 C.3       1 <0>        -0.1406
     25 C21         6.8082   -0.6122   10.9633 C.3       1 <0>        -0.1173
     26 C22         6.7593   -1.3015   12.3284 C.3       1 <0>        -0.1316
     27 C23         6.7870   -2.8189   12.1349 C.3       1 <0>        -0.1173
     28 C24         5.5773   -3.2491   11.3028 C.3       1 <0>        -0.1406
     29 H2         -2.8280   -4.6676   -2.4557 H         1 <0>         0.0565
     30 H3         -1.9921   -5.8133   -3.5313 H         1 <0>         0.1030
     31 H4         -2.6817   -6.3796   -1.9911 H         1 <0>         0.0564
     32 H5         -3.1485   -5.0819   -0.4318 H         1 <0>         0.1289
     33 H6         -3.2644   -4.4474    1.9473 H         1 <0>         0.1243
     34 H7         -1.2043   -3.9194    3.1757 H         1 <0>         0.1212
     35 H8          1.7360   -5.7799   -0.6630 H         1 <0>         0.0744
     36 H9          1.3436   -4.2981   -1.5621 H         1 <0>         0.0775
     37 H10         3.5301   -4.2041   -0.2806 H         1 <0>         0.0697
     38 H11         2.3761   -2.9118    0.1388 H         1 <0>         0.0649
     39 H12         2.5730   -5.5454    1.6702 H         1 <0>         0.0682
     40 H13         3.4501   -4.0684    2.1462 H         1 <0>         0.0673
     41 H14         0.2459   -4.2306    4.1616 H         1 <0>         0.0680
     42 H15         1.1948   -5.6316    3.6094 H         1 <0>         0.0698
     43 H16         3.2860   -4.4869    4.1618 H         1 <0>         0.0795
     44 H17         2.3979   -3.0050    4.5902 H         1 <0>         0.0632
     45 H18         1.2358   -4.2270    6.4080 H         1 <0>         0.0460
     46 H19         2.1239   -5.7089    5.9797 H         1 <0>         0.0885
     47 H20         3.3347   -2.2471    6.0247 H         1 <0>         0.1255
     48 H21         2.3822   -2.4203    7.5189 H         1 <0>         0.0593
     49 H22         5.4218   -2.6052    7.3053 H         1 <0>         0.1371
     50 H23         4.5057   -1.2299    7.9669 H         1 <0>         0.1359
     51 H24         5.4007   -4.7132    8.4258 H         1 <0>         0.1372
     52 H25         4.4687   -4.9196    9.9281 H         1 <0>         0.1361
     53 H26         2.3604   -4.5920    8.6732 H         1 <0>         0.0592
     54 H27         3.2976   -5.9422    7.9889 H         1 <0>         0.1231
     55 H28         6.5426   -2.8434    9.4201 H         1 <0>         0.1370
     56 H29         5.6333   -0.5514    9.1587 H         1 <0>         0.0873
     57 H30         4.6821   -0.7588   10.6488 H         1 <0>         0.0853
     58 H31         7.7246   -0.8958   10.4457 H         1 <0>         0.0746
     59 H32         6.7885    0.4688   11.1012 H         1 <0>         0.0846
     60 H33         7.6212   -0.9950   12.9212 H         1 <0>         0.0795
     61 H34         5.8430   -1.0179   12.8460 H         1 <0>         0.0698
     62 H35         7.7034   -3.1025   11.6173 H         1 <0>         0.0746
     63 H36         6.7522   -3.3099   13.1074 H         1 <0>         0.0846
     64 H37         4.6609   -2.9655   11.8204 H         1 <0>         0.0853
     65 H38         5.5971   -4.3301   11.1649 H         1 <0>         0.0873
     66 H39         3.6166   -2.7097    9.6179 H         1 <0>         0.4173
@<TRIPOS>BOND
     1    1    2 1
     2    1   29 1
     3    1   30 1
     4    1   31 1
     5    2    3 1
     6    3    8 ar
     7    3    4 ar
     8    4    5 ar
     9    4   32 1
    10    5    6 ar
    11    5   33 1
    12    6    7 ar
    13    6   34 1
    14    7   12 1
    15    7    8 ar
    16    8    9 1
    17    9   10 1
    18    9   35 1
    19    9   36 1
    20   10   11 1
    21   10   37 1
    22   10   38 1
    23   11   12 1
    24   11   39 1
    25   11   40 1
    26   12   13 1
    27   12   14 1
    28   14   15 1
    29   14   41 1
    30   14   42 1
    31   15   16 1
    32   15   43 1
    33   15   44 1
    34   16   17 1
    35   16   45 1
    36   16   46 1
    37   17   22 1
    38   17   18 1
    39   18   19 1
    40   18   47 1
    41   18   48 1
    42   19   20 1
    43   19   49 1
    44   19   50 1
    45   20   21 1
    46   20   23 1
    47   20   66 1
    48   21   22 1
    49   21   51 1
    50   21   52 1
    51   22   53 1
    52   22   54 1
    53   23   28 1
    54   23   24 1
    55   23   55 1
    56   24   25 1
    57   24   56 1
    58   24   57 1
    59   25   26 1
    60   25   58 1
    61   25   59 1
    62   26   27 1
    63   26   60 1
    64   26   61 1
    65   27   28 1
    66   27   62 1
    67   27   63 1
    68   28   64 1
    69   28   65 1
@<TRIPOS>MOLECULE
ZINC00537822
   50    52     0     0     0
SMALL
USER_CHARGES

@<TRIPOS>ATOM
      1 C1         -0.0169    1.3952    0.0097 C.ar      1 <0>        -0.0260
      2 C2          1.1683    2.0970    0.0022 C.ar      1 <0>        -0.1650
      3 C3          2.3789    1.4198   -0.0130 C.ar      1 <0>         0.1439
      4 C4          2.4047    0.0329   -0.0212 C.ar      1 <0>        -0.1670
      5 C5          1.2267   -0.6810   -0.0142 C.ar      1 <0>        -0.0432
      6 C6          0.0021   -0.0041    0.0020 C.ar      1 <0>        -0.1967
      7 C7         -1.2591   -0.7596    0.0105 C.2       1 <0>         0.4038
      8 O1         -2.3189   -0.1702    0.0242 O.2       1 <0>        -0.4483
      9 C8         -1.2348   -2.2664    0.0022 C.3       1 <0>        -0.1653
     10 C9         -2.6689   -2.7996    0.0135 C.3       1 <0>        -0.1429
     11 C10        -2.6443   -4.3293    0.0051 C.3       1 <0>        -0.0092
     12 N1         -4.0211   -4.8413    0.0160 N.4       1 <0>        -0.3830
     13 C11        -4.6726   -4.4620    1.2755 C.3       1 <0>        -0.0093
     14 C12        -6.1318   -4.9225    1.2582 C.3       1 <0>        -0.1330
     15 C13        -6.1791   -6.4445    1.0954 C.3       1 <0>         0.1746
     16 C14        -5.4322   -6.8346   -0.1834 C.3       1 <0>        -0.1706
     17 C15        -3.9990   -6.3033   -0.1127 C.3       1 <0>        -0.0017
     18 C16        -7.6135   -6.8966    0.9991 C.ar      1 <0>        -0.1262
     19 C17        -8.5661   -6.0599    0.4482 C.ar      1 <0>        -0.1006
     20 C18        -9.8818   -6.4740    0.3596 C.ar      1 <0>        -0.1039
     21 C19       -10.2453   -7.7262    0.8224 C.ar      1 <0>        -0.0247
     22 C20        -9.2914   -8.5631    1.3735 C.ar      1 <0>        -0.1016
     23 C21        -7.9750   -8.1501    1.4564 C.ar      1 <0>        -0.0934
     24 Cl1       -11.8977   -8.2468    0.7119 Cl        1 <0>        -0.0500
     25 O2         -5.5554   -7.0652    2.2213 O.3       1 <0>        -0.5474
     26 F1          3.5378    2.1141   -0.0204 F         1 <0>        -0.1258
     27 H1         -0.9587    1.9236    0.0260 H         1 <0>         0.1459
     28 H2          1.1551    3.1769    0.0077 H         1 <0>         0.1477
     29 H3          3.3506   -0.4883   -0.0334 H         1 <0>         0.1469
     30 H4          1.2482   -1.7608   -0.0213 H         1 <0>         0.1412
     31 H5         -0.7241   -2.6166   -0.8948 H         1 <0>         0.1127
     32 H6         -0.7064   -2.6261    0.8850 H         1 <0>         0.1127
     33 H7         -3.1796   -2.4493    0.9105 H         1 <0>         0.0952
     34 H8         -3.1973   -2.4398   -0.8693 H         1 <0>         0.0947
     35 H9         -2.1335   -4.6796   -0.8919 H         1 <0>         0.1333
     36 H10        -2.1158   -4.6891    0.8880 H         1 <0>         0.1327
     37 H11        -4.1530   -4.9339    2.1093 H         1 <0>         0.1388
     38 H12        -4.6353   -3.3788    1.3915 H         1 <0>         0.1356
     39 H13        -6.6132   -4.6415    2.1949 H         1 <0>         0.1238
     40 H14        -6.6524   -4.4509    0.4248 H         1 <0>         0.1045
     41 H15        -5.4137   -7.9204   -0.2771 H         1 <0>         0.1175
     42 H16        -5.9384   -6.4027   -1.0467 H         1 <0>         0.1009
     43 H17        -3.4644   -6.5795   -1.0215 H         1 <0>         0.1329
     44 H18        -3.4937   -6.7360    0.7507 H         1 <0>         0.1354
     45 H19        -8.2824   -5.0823    0.0874 H         1 <0>         0.1334
     46 H20       -10.6260   -5.8201   -0.0704 H         1 <0>         0.1408
     47 H21        -9.5746   -9.5405    1.7352 H         1 <0>         0.1414
     48 H22        -7.2294   -8.8051    1.8823 H         1 <0>         0.1323
     49 H23        -5.5495   -8.0314    2.1846 H         1 <0>         0.3907
     50 H24        -4.5327   -4.4442   -0.7578 H         1 <0>         0.4215
@<TRIPOS>BOND
     1    1    6 ar
     2    1    2 ar
     3    1   27 1
     4    2    3 ar
     5    2   28 1
     6    3    4 ar
     7    3   26 1
     8    4    5 ar
     9    4   29 1
    10    5    6 ar
    11    5   30 1
    12    6    7 1
    13    7    8 2
    14    7    9 1
    15    9   10 1
    16    9   31 1
    17    9   32 1
    18   10   11 1
    19   10   33 1
    20   10   34 1
    21   11   12 1
    22   11   35 1
    23   11   36 1
    24   12   17 1
    25   12   13 1
    26   12   50 1
    27   13   14 1
    28   13   37 1
    29   13   38 1
    30   14   15 1
    31   14   39 1
    32   14   40 1
    33   15   16 1
    34   15   18 1
    35   15   25 1
    36   16   17 1
    37   16   41 1
    38   16   42 1
    39   17   43 1
    40   17   44 1
    41   18   23 ar
    42   18   19 ar
    43   19   20 ar
    44   19   45 1
    45   20   21 ar
    46   20   46 1
    47   21   22 ar
    48   21   24 1
    49   22   23 ar
    50   22   47 1
    51   23   48 1
    52   25   49 1
@<TRIPOS>MOLECULE
ZINC00000596
   49    51     0     0     0
SMALL
USER_CHARGES
dimethyl-(3-methylbut-2-enyl)BLAHol
@<TRIPOS>ATOM
      1 C1          1.1810    0.6734   -0.4602 C.3       1 <0>        -0.1552
      2 C2         -0.3103    0.3734   -0.2964 C.3       1 <0>        -0.0889
      3 H1         -0.4566   -0.6974   -0.1546 H         1 <0>         0.1007
      4 C3         -0.8596    1.1333    0.9106 C.3       1 <0>         0.0339
      5 H2         -0.3716    0.7400    1.8024 H         1 <0>         0.1315
      6 C4         -0.4886    2.6026    0.8088 C.3       1 <0>        -0.0890
      7 C5         -0.7124    3.1461   -0.5773 C.ar      1 <0>        -0.1105
      8 C6         -0.6417    4.5245   -0.7476 C.ar      1 <0>        -0.0947
      9 C7         -0.8037    5.0868   -1.9953 C.ar      1 <0>        -0.1368
     10 C8         -1.0399    4.2730   -3.0941 C.ar      1 <0>         0.1240
     11 C9         -1.1181    2.9007   -2.9238 C.ar      1 <0>        -0.1397
     12 C10        -0.9596    2.3404   -1.6653 C.ar      1 <0>        -0.0583
     13 C11        -1.0712    0.8387   -1.5424 C.3       1 <0>        -0.0213
     14 C12        -2.5604    0.5047   -1.3358 C.3       1 <0>        -0.1334
     15 C13        -3.0578    1.3124   -0.1317 C.3       1 <0>        -0.0053
     16 C14        -2.8018    1.6243    2.2533 C.3       1 <0>         0.0259
     17 C15        -4.2991    1.4695    2.3258 C.2       1 <0>        -0.2563
     18 C16        -5.0630    2.5289    2.4263 C.2       1 <0>        -0.0381
     19 C17        -4.4429    3.8911    2.6019 C.3       1 <0>        -0.1488
     20 C18        -6.5620    2.3854    2.3663 C.3       1 <0>        -0.1379
     21 C19        -0.5306    0.1432   -2.7933 C.3       1 <0>        -0.1469
     22 O1         -1.1938    4.8189   -4.3291 O.3       1 <0>        -0.4948
     23 H3          1.7168    0.3508    0.4325 H         1 <0>         0.0686
     24 H4          1.5661    0.1382   -1.3282 H         1 <0>         0.0801
     25 H5          1.3227    1.7449   -0.6017 H         1 <0>         0.0720
     26 H6         -1.0945    3.1709    1.5146 H         1 <0>         0.0928
     27 H7          0.5628    2.7216    1.0708 H         1 <0>         0.1221
     28 H8         -0.4582    5.1602    0.1059 H         1 <0>         0.1313
     29 H9         -0.7465    6.1583   -2.1177 H         1 <0>         0.1363
     30 H10        -1.3033    2.2635   -3.7759 H         1 <0>         0.1374
     31 H11        -2.6758   -0.5611   -1.1388 H         1 <0>         0.0935
     32 H12        -3.1280    0.7795   -2.2249 H         1 <0>         0.1121
     33 H13        -4.1155    1.1061    0.0322 H         1 <0>         0.1284
     34 H14        -2.9211    2.3761   -0.3263 H         1 <0>         0.1309
     35 H15        -2.3482    1.1918    3.1451 H         1 <0>         0.1302
     36 H16        -2.5484    2.6828    2.1938 H         1 <0>         0.1348
     37 H17        -4.7423    0.4851    2.2948 H         1 <0>         0.1345
     38 H18        -4.1823    4.3003    1.6258 H         1 <0>         0.0808
     39 H19        -5.1543    4.5533    3.0953 H         1 <0>         0.0842
     40 H20        -3.5435    3.8050    3.2116 H         1 <0>         0.0726
     41 H21        -6.8215    1.3347    2.2372 H         1 <0>         0.0712
     42 H22        -6.9998    2.7566    3.2929 H         1 <0>         0.0829
     43 H23        -6.9487    2.9612    1.5255 H         1 <0>         0.0838
     44 H24        -0.6488   -0.9354   -2.6891 H         1 <0>         0.0700
     45 H25        -1.0835    0.4866   -3.6676 H         1 <0>         0.0708
     46 H26         0.5259    0.3828   -2.9143 H         1 <0>         0.0738
     47 H27        -2.1084    5.0436   -4.5486 H         1 <0>         0.3984
     48 N1         -2.3079    0.8926    1.0783 N.4       1 <0>        -0.3801
     49 H28        -2.4589   -0.1122    1.2258 H         1 <0>         0.4267
@<TRIPOS>BOND
     1    1    2 1
     2    1   23 1
     3    1   24 1
     4    1   25 1
     5    2    3 1
     6    2   13 1
     7    2    4 1
     8    4    5 1
     9    4    6 1
    10    4   48 1
    11    6    7 1
    12    6   26 1
    13    6   27 1
    14    7   12 ar
    15    7    8 ar
    16    8    9 ar
    17    8   28 1
    18    9   10 ar
    19    9   29 1
    20   10   11 ar
    21   10   22 1
    22   11   12 ar
    23   11   30 1
    24   12   13 1
    25   13   14 1
    26   13   21 1
    27   14   15 1
    28   14   31 1
    29   14   32 1
    30   15   33 1
    31   15   34 1
    32   15   48 1
    33   16   17 1
    34   16   35 1
    35   16   36 1
    36   16   48 1
    37   17   18 2
    38   17   37 1
    39   18   19 1
    40   18   20 1
    41   19   38 1
    42   19   39 1
    43   19   40 1
    44   20   41 1
    45   20   42 1
    46   20   43 1
    47   21   44 1
    48   21   45 1
    49   21   46 1
    50   22   47 1
    51   48   49 1
@<TRIPOS>MOLECULE
ZINC19367047
   49    51     0     0     0
SMALL
USER_CHARGES
1,4-dicyclohexylpiperazine
@<TRIPOS>ATOM
      1 C1         -0.7734    3.1225   -1.2231 C.3       1 <0>        -0.1321
      2 C2         -0.7527    1.5927   -1.2315 C.3       1 <0>        -0.1185
      3 C3         -0.0127    1.0858    0.0080 C.3       1 <0>        -0.1405
      4 C4         -0.7288    1.5792    1.2668 C.3       1 <0>         0.0344
      5 C5         -0.7496    3.1091    1.2752 C.3       1 <0>        -0.1399
      6 C6         -1.4896    3.6159    0.0357 C.3       1 <0>        -0.1185
      7 N1         -0.0184    1.0926    2.4569 N.4       1 <0>        -0.4005
      8 C7          0.1003   -0.3720    2.4373 C.3       1 <0>        -0.0035
      9 C8          0.9133   -0.8316    3.6498 C.3       1 <0>         0.0155
     10 N2          0.2523   -0.3761    4.8808 N.3       1 <0>        -0.5332
     11 C9          0.1337    1.0885    4.9004 C.3       1 <0>         0.0222
     12 C10        -0.6794    1.5481    3.6879 C.3       1 <0>        -0.0023
     13 C11         0.9628   -0.8628    6.0709 C.3       1 <0>         0.0870
     14 C12         2.3673   -0.2573    6.1094 C.3       1 <0>        -0.1526
     15 C13         3.1073   -0.7641    7.3489 C.3       1 <0>        -0.1184
     16 C14         3.2109   -2.2896    7.2929 C.3       1 <0>        -0.1249
     17 C15         1.8063   -2.8950    7.2543 C.3       1 <0>        -0.1224
     18 C16         1.0663   -2.3882    6.0148 C.3       1 <0>        -0.1142
     19 H1         -1.3054    3.4869   -2.1143 H         1 <0>         0.0797
     20 H2          0.2586    3.5032   -1.2309 H         1 <0>         0.0701
     21 H3         -1.7847    1.2120   -1.2237 H         1 <0>         0.0744
     22 H4         -0.2379    1.2379   -2.1365 H         1 <0>         0.0848
     23 H5          0.0022   -0.0141    0.0019 H         1 <0>         0.0873
     24 H6          1.0193    1.4665    0.0002 H         1 <0>         0.0863
     25 H7         -1.7524    1.1788    1.3107 H         1 <0>         0.1314
     26 H8         -1.2645    3.4638    2.1802 H         1 <0>         0.0868
     27 H9          0.2824    3.4899    1.2674 H         1 <0>         0.0864
     28 H10        -1.5046    4.7158    0.0417 H         1 <0>         0.0848
     29 H11        -2.5216    3.2351    0.0435 H         1 <0>         0.0744
     30 H12        -0.9029   -0.8217    2.4755 H         1 <0>         0.1338
     31 H13         0.6081   -0.6864    1.5136 H         1 <0>         0.1360
     32 H14         0.9789   -1.9296    3.6524 H         1 <0>         0.1264
     33 H15         1.9254   -0.4040    3.5961 H         1 <0>         0.0622
     34 H16        -0.3741    1.4029    5.8242 H         1 <0>         0.1222
     35 H17         1.1369    1.5382    4.8622 H         1 <0>         0.0634
     36 H18        -0.7451    2.6461    3.6841 H         1 <0>         0.1359
     37 H19        -1.6915    1.1205    3.7404 H         1 <0>         0.1340
     38 H20         0.3821   -0.5474    6.9503 H         1 <0>         0.0965
     39 H21         2.9195   -0.5544    5.2056 H         1 <0>         0.0646
     40 H22         2.2928    0.8394    6.1497 H         1 <0>         0.0638
     41 H23         4.1171   -0.3288    7.3766 H         1 <0>         0.0672
     42 H24         2.5551   -0.4670    8.2527 H         1 <0>         0.0674
     43 H25         3.7632   -2.5867    6.3892 H         1 <0>         0.0618
     44 H26         3.7429   -2.6540    8.1841 H         1 <0>         0.0695
     45 H27         1.8807   -3.9917    7.2140 H         1 <0>         0.0714
     46 H28         1.2540   -2.5980    8.1580 H         1 <0>         0.0677
     47 H29         0.0564   -2.8234    5.9871 H         1 <0>         0.0756
     48 H30         1.6185   -2.6853    5.1110 H         1 <0>         0.0643
     49 H31         0.9967    1.5160    2.4396 H         1 <0>         0.4324
@<TRIPOS>BOND
     1    1    6 1
     2    1    2 1
     3    1   19 1
     4    1   20 1
     5    2    3 1
     6    2   21 1
     7    2   22 1
     8    3    4 1
     9    3   23 1
    10    3   24 1
    11    4    5 1
    12    4    7 1
    13    4   25 1
    14    5    6 1
    15    5   26 1
    16    5   27 1
    17    6   28 1
    18    6   29 1
    19    7   12 1
    20    7    8 1
    21    7   49 1
    22    8    9 1
    23    8   30 1
    24    8   31 1
    25    9   10 1
    26    9   32 1
    27    9   33 1
    28   10   11 1
    29   10   13 1
    30   11   12 1
    31   11   34 1
    32   11   35 1
    33   12   36 1
    34   12   37 1
    35   13   18 1
    36   13   14 1
    37   13   38 1
    38   14   15 1
    39   14   39 1
    40   14   40 1
    41   15   16 1
    42   15   41 1
    43   15   42 1
    44   16   17 1
    45   16   43 1
    46   16   44 1
    47   17   18 1
    48   17   45 1
    49   17   46 1
    50   18   47 1
    51   18   48 1
@<TRIPOS>MOLECULE
ZINC12343491
   50    52     0     0     0
SMALL
USER_CHARGES
cyclohexyl-(4-cyclohexylpiperazin-1-yl)methanone
@<TRIPOS>ATOM
      1 C1         -2.8524    1.3850   -0.6336 C.3       1 <0>        -0.1237
      2 C2         -1.9539    0.4351   -1.4281 C.3       1 <0>        -0.1199
      3 C3         -0.5218    0.9737   -1.4344 C.3       1 <0>        -0.1024
      4 C4         -0.0095    1.0770    0.0035 C.3       1 <0>        -0.1052
      5 C5         -0.9080    2.0269    0.7980 C.3       1 <0>        -0.1081
      6 C6         -2.3401    1.4884    0.8043 C.3       1 <0>        -0.1176
      7 C7          1.4011    1.6074   -0.0027 C.2       1 <0>         0.5187
      8 O1          1.8047    2.2460   -0.9515 O.2       1 <0>        -0.5394
      9 N1          2.2141    1.3722    1.0462 N.am      1 <0>        -0.6148
     10 C8          1.7770    0.5228    2.1645 C.3       1 <0>         0.1072
     11 C9          2.8583   -0.5407    2.4133 C.3       1 <0>         0.0309
     12 N2          4.1546    0.1225    2.6075 N.3       1 <0>        -0.5309
     13 C10         4.5686    0.8476    1.3989 C.3       1 <0>         0.0397
     14 C11         3.5597    1.9631    1.1057 C.3       1 <0>         0.1132
     15 C12         5.1827   -0.8420    3.0209 C.3       1 <0>         0.0864
     16 C13         5.4142   -1.8538    1.8969 C.3       1 <0>        -0.1521
     17 C14         6.4849   -2.8583    2.3275 C.3       1 <0>        -0.1161
     18 C15         6.0189   -3.5923    3.5865 C.3       1 <0>        -0.1220
     19 C16         5.7874   -2.5804    4.7105 C.3       1 <0>        -0.1194
     20 C17         4.7166   -1.5759    4.2799 C.3       1 <0>        -0.1135
     21 H1         -3.8820    0.9979   -0.6290 H         1 <0>         0.0641
     22 H2         -2.8372    2.3807   -1.1008 H         1 <0>         0.0641
     23 H3         -1.9692   -0.5606   -0.9609 H         1 <0>         0.0621
     24 H4         -2.3223    0.3607   -2.4619 H         1 <0>         0.0668
     25 H5          0.1242    0.2908   -2.0057 H         1 <0>         0.0639
     26 H6         -0.5066    1.9695   -1.9015 H         1 <0>         0.0754
     27 H7         -0.0094    0.0821    0.4728 H         1 <0>         0.0919
     28 H8         -0.5396    2.1012    1.8318 H         1 <0>         0.0668
     29 H9         -0.8927    3.0227    0.3309 H         1 <0>         0.0704
     30 H10        -2.9861    2.1713    1.3755 H         1 <0>         0.0675
     31 H11        -2.3554    0.4927    1.2715 H         1 <0>         0.0642
     32 H12         1.6422    1.1415    3.0639 H         1 <0>         0.0787
     33 H13         0.8237    0.0385    1.9063 H         1 <0>         0.0913
     34 H14         2.6024   -1.1203    3.3125 H         1 <0>         0.0942
     35 H15         2.9156   -1.2152    1.5463 H         1 <0>         0.0413
     36 H16         5.5653    1.2853    1.5573 H         1 <0>         0.0878
     37 H17         4.6049    0.1514    0.5480 H         1 <0>         0.0425
     38 H18         3.7947    2.4377    0.1416 H         1 <0>         0.0963
     39 H19         3.5933    2.7189    1.9042 H         1 <0>         0.0749
     40 H20         6.1021   -0.2732    3.2236 H         1 <0>         0.0852
     41 H21         4.4757   -2.3868    1.6843 H         1 <0>         0.0631
     42 H22         5.7493   -1.3261    0.9918 H         1 <0>         0.0628
     43 H23         6.6513   -3.5858    1.5194 H         1 <0>         0.0613
     44 H24         7.4234   -2.3254    2.5400 H         1 <0>         0.0633
     45 H25         5.0805   -4.1253    3.3740 H         1 <0>         0.0605
     46 H26         6.7887   -4.3145    3.8961 H         1 <0>         0.0630
     47 H27         5.4523   -3.1081    5.6156 H         1 <0>         0.0653
     48 H28         6.7259   -2.0474    4.9231 H         1 <0>         0.0638
     49 H29         4.5502   -0.8483    5.0880 H         1 <0>         0.0721
     50 H30         3.7781   -2.1089    4.0674 H         1 <0>         0.0646
@<TRIPOS>BOND
     1    1    6 1
     2    1    2 1
     3    1   21 1
     4    1   22 1
     5    2    3 1
     6    2   23 1
     7    2   24 1
     8    3    4 1
     9    3   25 1
    10    3   26 1
    11    4    5 1
    12    4    7 1
    13    4   27 1
    14    5    6 1
    15    5   28 1
    16    5   29 1
    17    6   30 1
    18    6   31 1
    19    7    8 2
    20    7    9 am
    21    9   14 1
    22    9   10 1
    23   10   11 1
    24   10   32 1
    25   10   33 1
    26   11   12 1
    27   11   34 1
    28   11   35 1
    29   12   13 1
    30   12   15 1
    31   13   14 1
    32   13   36 1
    33   13   37 1
    34   14   38 1
    35   14   39 1
    36   15   20 1
    37   15   16 1
    38   15   40 1
    39   16   17 1
    40   16   41 1
    41   16   42 1
    42   17   18 1
    43   17   43 1
    44   17   44 1
    45   18   19 1
    46   18   45 1
    47   18   46 1
    48   19   20 1
    49   19   47 1
    50   19   48 1
    51   20   49 1
    52   20   50 1
@<TRIPOS>MOLECULE
ZINC12343491
   51    53     0     0     0
SMALL
USER_CHARGES
cyclohexyl-(4-cyclohexylpiperazin-1-yl)methanone
@<TRIPOS>ATOM
      1 C1         -2.8524    1.3850   -0.6336 C.3       1 <0>        -0.1275
      2 C2         -1.9539    0.4351   -1.4281 C.3       1 <0>        -0.1211
      3 C3         -0.5218    0.9737   -1.4344 C.3       1 <0>        -0.1055
      4 C4         -0.0095    1.0770    0.0035 C.3       1 <0>        -0.1032
      5 C5         -0.9080    2.0269    0.7980 C.3       1 <0>        -0.1096
      6 C6         -2.3401    1.4884    0.8043 C.3       1 <0>        -0.1188
      7 C7          1.4011    1.6074   -0.0027 C.2       1 <0>         0.5259
      8 O1          1.8047    2.2460   -0.9515 O.2       1 <0>        -0.5073
      9 N1          2.2141    1.3722    1.0462 N.am      1 <0>        -0.6350
     10 C8          1.7770    0.5228    2.1645 C.3       1 <0>         0.0809
     11 C9          2.8583   -0.5407    2.4133 C.3       1 <0>        -0.0292
     12 N2          4.1546    0.1225    2.6075 N.4       1 <0>        -0.3974
     13 C10         4.5686    0.8476    1.3989 C.3       1 <0>        -0.0182
     14 C11         3.5597    1.9631    1.1057 C.3       1 <0>         0.0851
     15 C12         5.1827   -0.8420    3.0209 C.3       1 <0>         0.0340
     16 C13         5.4142   -1.8538    1.8969 C.3       1 <0>        -0.1404
     17 C14         6.4849   -2.8583    2.3275 C.3       1 <0>        -0.1192
     18 C15         6.0189   -3.5923    3.5865 C.3       1 <0>        -0.1319
     19 C16         5.7874   -2.5804    4.7105 C.3       1 <0>        -0.1187
     20 C17         4.7166   -1.5759    4.2799 C.3       1 <0>        -0.1409
     21 H1         -3.8820    0.9979   -0.6290 H         1 <0>         0.0695
     22 H2         -2.8372    2.3807   -1.1008 H         1 <0>         0.0668
     23 H3         -1.9692   -0.5606   -0.9609 H         1 <0>         0.0633
     24 H4         -2.3223    0.3607   -2.4619 H         1 <0>         0.0724
     25 H5          0.1242    0.2908   -2.0057 H         1 <0>         0.0666
     26 H6         -0.5066    1.9695   -1.9015 H         1 <0>         0.0791
     27 H7         -0.0094    0.0821    0.4728 H         1 <0>         0.0930
     28 H8         -0.5396    2.1012    1.8318 H         1 <0>         0.0646
     29 H9         -0.8927    3.0227    0.3309 H         1 <0>         0.0749
     30 H10        -2.9861    2.1713    1.3755 H         1 <0>         0.0722
     31 H11        -2.3554    0.4927    1.2715 H         1 <0>         0.0649
     32 H12         1.6422    1.1415    3.0639 H         1 <0>         0.0993
     33 H13         0.8237    0.0385    1.9063 H         1 <0>         0.1330
     34 H14         2.6024   -1.1203    3.3125 H         1 <0>         0.1472
     35 H15         2.9156   -1.2152    1.5463 H         1 <0>         0.1319
     36 H16         5.5653    1.2853    1.5573 H         1 <0>         0.1436
     37 H17         4.6049    0.1514    0.5480 H         1 <0>         0.1316
     38 H18         3.7947    2.4377    0.1416 H         1 <0>         0.1364
     39 H19         3.5933    2.7189    1.9042 H         1 <0>         0.0955
     40 H20         6.1021   -0.2732    3.2236 H         1 <0>         0.1367
     41 H21         4.4757   -2.3868    1.6843 H         1 <0>         0.0846
     42 H22         5.7493   -1.3261    0.9918 H         1 <0>         0.0850
     43 H23         6.6513   -3.5858    1.5194 H         1 <0>         0.0841
     44 H24         7.4234   -2.3254    2.5400 H         1 <0>         0.0749
     45 H25         5.0805   -4.1253    3.3740 H         1 <0>         0.0694
     46 H26         6.7887   -4.3145    3.8961 H         1 <0>         0.0802
     47 H27         5.4523   -3.1081    5.6156 H         1 <0>         0.0856
     48 H28         6.7259   -2.0474    4.9231 H         1 <0>         0.0753
     49 H29         4.5502   -0.8483    5.0880 H         1 <0>         0.0883
     50 H30         3.7781   -2.1089    4.0674 H         1 <0>         0.0878
     51 H31         4.0355    0.8595    3.4154 H         1 <0>         0.4404
@<TRIPOS>BOND
     1    1    6 1
     2    1    2 1
     3    1   21 1
     4    1   22 1
     5    2    3 1
     6    2   23 1
     7    2   24 1
     8    3    4 1
     9    3   25 1
    10    3   26 1
    11    4    5 1
    12    4    7 1
    13    4   27 1
    14    5    6 1
    15    5   28 1
    16    5   29 1
    17    6   30 1
    18    6   31 1
    19    7    8 2
    20    7    9 am
    21    9   14 1
    22    9   10 1
    23   10   11 1
    24   10   32 1
    25   10   33 1
    26   11   12 1
    27   11   34 1
    28   11   35 1
    29   12   13 1
    30   12   15 1
    31   12   51 1
    32   13   14 1
    33   13   36 1
    34   13   37 1
    35   14   38 1
    36   14   39 1
    37   15   20 1
    38   15   16 1
    39   15   40 1
    40   16   17 1
    41   16   41 1
    42   16   42 1
    43   17   18 1
    44   17   43 1
    45   17   44 1
    46   18   19 1
    47   18   45 1
    48   18   46 1
    49   19   20 1
    50   19   47 1
    51   19   48 1
    52   20   49 1
    53   20   50 1
@<TRIPOS>MOLECULE
ZINC45285589
   67    70     0     0     0
SMALL
USER_CHARGES

@<TRIPOS>ATOM
      1 C1          3.3420   -5.4825   -0.7567 C.3       1 <0>         0.0259
      2 O1          2.1499   -5.2317   -0.0096 O.3       1 <0>        -0.3147
      3 C2          1.0414   -4.8845   -0.7150 C.ar      1 <0>         0.1280
      4 C3          1.1045   -4.7945   -2.0953 C.ar      1 <0>        -0.2105
      5 C4         -0.0230   -4.4408   -2.8106 C.ar      1 <0>        -0.0815
      6 C5         -1.2031   -4.1768   -2.1457 C.ar      1 <0>        -0.1599
      7 C6         -1.2709   -4.2643   -0.7610 C.ar      1 <0>        -0.0405
      8 C7         -0.1531   -4.6268   -0.0448 C.ar      1 <0>        -0.1046
      9 C8         -0.1595   -4.7627    1.4552 C.3       1 <0>        -0.0719
     10 C9         -1.3691   -4.0482    2.0543 C.3       1 <0>        -0.1219
     11 C10        -2.6264   -4.5247    1.3174 C.3       1 <0>        -0.1127
     12 C11        -2.5899   -3.9542   -0.1027 C.3       1 <0>        -0.0448
     13 H1         -2.7309   -2.8738   -0.0717 H         1 <0>         0.0844
     14 C12        -3.7208   -4.5866   -0.9163 C.3       1 <0>        -0.1155
     15 C13        -5.0691   -4.1678   -0.3268 C.3       1 <0>        -0.1226
     16 C14        -6.1992   -4.6936   -1.2141 C.3       1 <0>        -0.1166
     17 C15        -7.5475   -4.2748   -0.6246 C.3       1 <0>        -0.1000
     18 C16        -7.7519   -4.9649    0.7271 C.3       1 <0>        -0.1434
     19 C17        -9.1350   -4.6046    1.2736 C.3       1 <0>        -0.0114
     20 N1        -10.1687   -5.0525    0.3326 N.4       1 <0>        -0.3805
     21 C18       -10.0226   -4.3416   -0.9432 C.3       1 <0>        -0.0110
     22 C19        -8.6736   -4.6917   -1.5750 C.3       1 <0>        -0.1419
     23 C20       -11.4962   -4.7745    0.8971 C.3       1 <0>         0.0255
     24 C21       -11.6535   -5.5223    2.2226 C.3       1 <0>        -0.1407
     25 C22       -13.0361   -5.2329    2.8105 C.3       1 <0>        -0.1174
     26 C23       -14.1147   -5.6992    1.8307 C.3       1 <0>        -0.1315
     27 C24       -13.9574   -4.9514    0.5052 C.3       1 <0>        -0.1175
     28 C25       -12.5748   -5.2408   -0.0827 C.3       1 <0>        -0.1409
     29 H2          4.1491   -5.7490   -0.0743 H         1 <0>         0.1027
     30 H3          3.1687   -6.3032   -1.4527 H         1 <0>         0.0563
     31 H4          3.6175   -4.5864   -1.3128 H         1 <0>         0.0566
     32 H5          2.0313   -4.9997   -2.6104 H         1 <0>         0.1288
     33 H6          0.0189   -4.3708   -3.8875 H         1 <0>         0.1247
     34 H7         -2.0826   -3.8990   -2.7075 H         1 <0>         0.1224
     35 H8         -0.1985   -5.8193    1.7202 H         1 <0>         0.0734
     36 H9          0.7532   -4.3249    1.8596 H         1 <0>         0.0774
     37 H10        -1.4508   -4.2903    3.1139 H         1 <0>         0.0689
     38 H11        -1.2574   -2.9710    1.9309 H         1 <0>         0.0656
     39 H12        -2.6411   -5.6140    1.2831 H         1 <0>         0.0667
     40 H13        -3.5146   -4.1611    1.8341 H         1 <0>         0.0651
     41 H14        -3.6563   -4.2499   -1.9510 H         1 <0>         0.0692
     42 H15        -3.6304   -5.6723   -0.8813 H         1 <0>         0.0660
     43 H16        -5.1717   -4.5824    0.6760 H         1 <0>         0.0664
     44 H17        -5.1220   -3.0802   -0.2775 H         1 <0>         0.0656
     45 H18        -6.0966   -4.2790   -2.2170 H         1 <0>         0.0734
     46 H19        -6.1463   -5.7812   -1.2635 H         1 <0>         0.0688
     47 H20        -7.5661   -3.1934   -0.4896 H         1 <0>         0.0888
     48 H21        -7.6813   -6.0450    0.5987 H         1 <0>         0.0877
     49 H22        -6.9857   -4.6300    1.4263 H         1 <0>         0.1138
     50 H23        -9.2838   -5.0942    2.2360 H         1 <0>         0.1312
     51 H24        -9.2045   -3.5244    1.4018 H         1 <0>         0.1272
     52 H25       -10.8266   -4.6369   -1.6174 H         1 <0>         0.1313
     53 H26       -10.0731   -3.2670   -0.7677 H         1 <0>         0.1272
     54 H27        -8.5663   -4.1615   -2.5213 H         1 <0>         0.1116
     55 H28        -8.6221   -5.7662   -1.7511 H         1 <0>         0.0874
     56 H29       -11.6006   -3.7034    1.0696 H         1 <0>         0.1349
     57 H30       -11.5491   -6.5935    2.0500 H         1 <0>         0.0858
     58 H31       -10.8850   -5.1901    2.9206 H         1 <0>         0.0872
     59 H32       -13.1481   -5.7656    3.7548 H         1 <0>         0.0845
     60 H33       -13.1405   -4.1617    2.9830 H         1 <0>         0.0740
     61 H34       -14.0103   -6.7703    1.6581 H         1 <0>         0.0700
     62 H35       -15.0997   -5.4930    2.2495 H         1 <0>         0.0793
     63 H36       -14.7258   -5.2836   -0.1928 H         1 <0>         0.0844
     64 H37       -14.0618   -3.8802    0.6777 H         1 <0>         0.0740
     65 H38       -12.4627   -4.7081   -1.0270 H         1 <0>         0.0871
     66 H39       -12.4704   -6.3120   -0.2553 H         1 <0>         0.0858
     67 H40       -10.0729   -6.0447    0.1765 H         1 <0>         0.4193
@<TRIPOS>BOND
     1    1    2 1
     2    1   29 1
     3    1   30 1
     4    1   31 1
     5    2    3 1
     6    3    8 ar
     7    3    4 ar
     8    4    5 ar
     9    4   32 1
    10    5    6 ar
    11    5   33 1
    12    6    7 ar
    13    6   34 1
    14    7   12 1
    15    7    8 ar
    16    8    9 1
    17    9   10 1
    18    9   35 1
    19    9   36 1
    20   10   11 1
    21   10   37 1
    22   10   38 1
    23   11   12 1
    24   11   39 1
    25   11   40 1
    26   12   13 1
    27   12   14 1
    28   14   15 1
    29   14   41 1
    30   14   42 1
    31   15   16 1
    32   15   43 1
    33   15   44 1
    34   16   17 1
    35   16   45 1
    36   16   46 1
    37   17   22 1
    38   17   18 1
    39   17   47 1
    40   18   19 1
    41   18   48 1
    42   18   49 1
    43   19   20 1
    44   19   50 1
    45   19   51 1
    46   20   21 1
    47   20   23 1
    48   20   67 1
    49   21   22 1
    50   21   52 1
    51   21   53 1
    52   22   54 1
    53   22   55 1
    54   23   28 1
    55   23   24 1
    56   23   56 1
    57   24   25 1
    58   24   57 1
    59   24   58 1
    60   25   26 1
    61   25   59 1
    62   25   60 1
    63   26   27 1
    64   26   61 1
    65   26   62 1
    66   27   28 1
    67   27   63 1
    68   27   64 1
    69   28   65 1
    70   28   66 1
@<TRIPOS>MOLECULE
ZINC45285591
   67    70     0     0     0
SMALL
USER_CHARGES

@<TRIPOS>ATOM
      1 C1          3.0281   -6.6796   -0.0099 C.3       1 <0>         0.0259
      2 O1          1.8165   -6.2282   -0.6184 O.3       1 <0>        -0.3145
      3 C2          0.8765   -5.6909    0.2029 C.ar      1 <0>         0.1284
      4 C3          1.1231   -5.5976    1.5624 C.ar      1 <0>        -0.2105
      5 C4          0.1672   -5.0497    2.3955 C.ar      1 <0>        -0.0819
      6 C5         -1.0249   -4.5967    1.8681 C.ar      1 <0>        -0.1601
      7 C6         -1.2765   -4.6877    0.5051 C.ar      1 <0>        -0.0402
      8 C7         -0.3271   -5.2321   -0.3291 C.ar      1 <0>        -0.1041
      9 C8         -0.5361   -5.3714   -1.8142 C.3       1 <0>        -0.0725
     10 C9         -1.6673   -4.4598   -2.2854 C.3       1 <0>        -0.1207
     11 C10        -2.8906   -4.7067   -1.3947 C.3       1 <0>        -0.1144
     12 C11        -2.5964   -4.1665   -0.0004 C.3       1 <0>        -0.0439
     13 H1         -2.5582   -3.0783   -0.0493 H         1 <0>         0.0812
     14 C12        -3.7078   -4.5887    0.9626 C.3       1 <0>        -0.1145
     15 C13        -5.0303   -3.9567    0.5238 C.3       1 <0>        -0.1226
     16 C14        -6.1141   -4.2731    1.5562 C.3       1 <0>        -0.1166
     17 C15        -7.4366   -3.6411    1.1174 C.3       1 <0>        -0.1000
     18 C16        -7.3059   -2.1154    1.1356 C.3       1 <0>        -0.1433
     19 C17        -8.6542   -1.4892    0.7729 C.3       1 <0>        -0.0114
     20 N1         -9.6695   -1.9064    1.7473 N.4       1 <0>        -0.3805
     21 C18        -9.8516   -3.3616    1.6848 C.3       1 <0>        -0.0109
     22 C19        -8.5494   -4.0599    2.0825 C.3       1 <0>        -0.1419
     23 C20       -10.9430   -1.2415    1.4405 C.3       1 <0>         0.0255
     24 C21       -10.7570    0.2754    1.5144 C.3       1 <0>        -0.1407
     25 C22       -12.0834    0.9679    1.1949 C.3       1 <0>        -0.1175
     26 C23       -13.1428    0.5339    2.2098 C.3       1 <0>        -0.1315
     27 C24       -13.3288   -0.9829    2.1359 C.3       1 <0>        -0.1175
     28 C25       -12.0024   -1.6755    2.4554 C.3       1 <0>        -0.1408
     29 H2          3.6899   -7.0850   -0.7752 H         1 <0>         0.1029
     30 H3          3.5181   -5.8430    0.4882 H         1 <0>         0.0564
     31 H4          2.8004   -7.4550    0.7215 H         1 <0>         0.0564
     32 H5          2.0586   -5.9519    1.9694 H         1 <0>         0.1288
     33 H6          0.3522   -4.9764    3.4571 H         1 <0>         0.1244
     34 H7         -1.7698   -4.1674    2.5218 H         1 <0>         0.1217
     35 H8          0.3833   -5.1011   -2.3335 H         1 <0>         0.0775
     36 H9         -0.7882   -6.4062   -2.0461 H         1 <0>         0.0740
     37 H10        -1.3576   -3.4179   -2.2031 H         1 <0>         0.0649
     38 H11        -1.9157   -4.6886   -3.3218 H         1 <0>         0.0698
     39 H12        -3.7582   -4.1962   -1.8129 H         1 <0>         0.0665
     40 H13        -3.0887   -5.7766   -1.3315 H         1 <0>         0.0660
     41 H14        -3.8033   -5.6745    0.9536 H         1 <0>         0.0672
     42 H15        -3.4619   -4.2540    1.9704 H         1 <0>         0.0688
     43 H16        -4.9081   -2.8765    0.4447 H         1 <0>         0.0639
     44 H17        -5.3224   -4.3613   -0.4453 H         1 <0>         0.0681
     45 H18        -6.2363   -5.3534    1.6354 H         1 <0>         0.0736
     46 H19        -5.8220   -3.8686    2.5253 H         1 <0>         0.0685
     47 H20        -7.6834   -3.9750    0.1096 H         1 <0>         0.0889
     48 H21        -7.0084   -1.7875    2.1316 H         1 <0>         0.0876
     49 H22        -6.5538   -1.8058    0.4100 H         1 <0>         0.1138
     50 H23        -8.5646   -0.4029    0.7848 H         1 <0>         0.1312
     51 H24        -8.9506   -1.8176   -0.2232 H         1 <0>         0.1272
     52 H25       -10.6460   -3.6577    2.3698 H         1 <0>         0.1313
     53 H26       -10.1225   -3.6501    0.6691 H         1 <0>         0.1273
     54 H27        -8.6861   -5.1402    2.0337 H         1 <0>         0.1116
     55 H28        -8.2777   -3.7723    3.0982 H         1 <0>         0.0874
     56 H29       -11.2655   -1.5195    0.4371 H         1 <0>         0.1349
     57 H30       -10.4345    0.5534    2.5178 H         1 <0>         0.0857
     58 H31       -10.0023    0.5846    0.7914 H         1 <0>         0.0872
     59 H32       -11.9509    2.0486    1.2475 H         1 <0>         0.0844
     60 H33       -12.4059    0.6899    0.1915 H         1 <0>         0.0740
     61 H34       -12.8203    0.8120    3.2132 H         1 <0>         0.0700
     62 H35       -14.0877    1.0273    1.9821 H         1 <0>         0.0793
     63 H36       -14.0836   -1.2921    2.8589 H         1 <0>         0.0844
     64 H37       -13.6513   -1.2610    1.1325 H         1 <0>         0.0740
     65 H38       -12.1349   -2.7561    2.4028 H         1 <0>         0.0871
     66 H39       -11.6799   -1.3975    3.4588 H         1 <0>         0.0858
     67 H40        -9.3711   -1.6454    2.6752 H         1 <0>         0.4192
@<TRIPOS>BOND
     1    1    2 1
     2    1   29 1
     3    1   30 1
     4    1   31 1
     5    2    3 1
     6    3    8 ar
     7    3    4 ar
     8    4    5 ar
     9    4   32 1
    10    5    6 ar
    11    5   33 1
    12    6    7 ar
    13    6   34 1
    14    7   12 1
    15    7    8 ar
    16    8    9 1
    17    9   10 1
    18    9   35 1
    19    9   36 1
    20   10   11 1
    21   10   37 1
    22   10   38 1
    23   11   12 1
    24   11   39 1
    25   11   40 1
    26   12   13 1
    27   12   14 1
    28   14   15 1
    29   14   41 1
    30   14   42 1
    31   15   16 1
    32   15   43 1
    33   15   44 1
    34   16   17 1
    35   16   45 1
    36   16   46 1
    37   17   22 1
    38   17   18 1
    39   17   47 1
    40   18   19 1
    41   18   48 1
    42   18   49 1
    43   19   20 1
    44   19   50 1
    45   19   51 1
    46   20   21 1
    47   20   23 1
    48   20   67 1
    49   21   22 1
    50   21   52 1
    51   21   53 1
    52   22   54 1
    53   22   55 1
    54   23   28 1
    55   23   24 1
    56   23   56 1
    57   24   25 1
    58   24   57 1
    59   24   58 1
    60   25   26 1
    61   25   59 1
    62   25   60 1
    63   26   27 1
    64   26   61 1
    65   26   62 1
    66   27   28 1
    67   27   63 1
    68   27   64 1
    69   28   65 1
    70   28   66 1
@<TRIPOS>MOLECULE
ZINC02015833
   49    51     0     0     0
SMALL
USER_CHARGES
dimethyl-(3-methylbut-2-enyl)BLAHol
@<TRIPOS>ATOM
      1 C1          0.7871    0.1681   -2.3664 C.3       1 <0>        -0.1543
      2 C2          1.0290   -0.5044   -1.0136 C.3       1 <0>        -0.0895
      3 H1          0.9448   -1.5859   -1.1195 H         1 <0>         0.1004
      4 C3          0.0021   -0.0041    0.0020 C.3       1 <0>         0.0336
      5 H2         -0.9756   -0.3489   -0.3348 H         1 <0>         0.1315
      6 C4         -0.0185    1.5145    0.0104 C.3       1 <0>        -0.0878
      7 C5          1.3688    2.0979    0.0003 C.ar      1 <0>        -0.1107
      8 C6          1.4961    3.4605    0.2480 C.ar      1 <0>        -0.0947
      9 C7          2.7354    4.0629    0.2406 C.ar      1 <0>        -0.1368
     10 C8          3.8693    3.3057   -0.0171 C.ar      1 <0>         0.1241
     11 C9          3.7439    1.9476   -0.2579 C.ar      1 <0>        -0.1402
     12 C10         2.4949    1.3454   -0.2437 C.ar      1 <0>        -0.0591
     13 C11         2.4261   -0.1424   -0.4986 C.3       1 <0>        -0.0216
     14 C12         2.6280   -0.8493    0.8536 C.3       1 <0>        -0.1333
     15 C13         1.5895   -0.2893    1.8323 C.3       1 <0>        -0.0057
     16 C14        -0.7814   -0.1176    2.2799 C.3       1 <0>         0.0302
     17 C15        -0.6498   -0.9004    3.5609 C.2       1 <0>        -0.2601
     18 C16        -0.5056   -0.2716    4.7010 C.2       1 <0>        -0.0349
     19 C17        -0.4712    1.2347    4.7315 C.3       1 <0>        -0.1490
     20 C18        -0.3740   -1.0544    5.9819 C.3       1 <0>        -0.1387
     21 C19         3.5063   -0.5678   -1.4950 C.3       1 <0>        -0.1465
     22 O1          5.0948    3.8930   -0.0336 O.3       1 <0>        -0.4968
     23 H3          0.8836    1.2483   -2.2576 H         1 <0>         0.0720
     24 H4          1.5214   -0.1915   -3.0873 H         1 <0>         0.0794
     25 H5         -0.2159   -0.0736   -2.7181 H         1 <0>         0.0685
     26 H6         -0.5573    1.8664   -0.8694 H         1 <0>         0.1214
     27 H7         -0.5404    1.8569    0.9040 H         1 <0>         0.0930
     28 H8          0.6150    4.0523    0.4477 H         1 <0>         0.1314
     29 H9          2.8240    5.1215    0.4351 H         1 <0>         0.1363
     30 H10         4.6239    1.3543   -0.4581 H         1 <0>         0.1374
     31 H11         3.6325   -0.6513    1.2276 H         1 <0>         0.1128
     32 H12         2.4822   -1.9229    0.7346 H         1 <0>         0.0938
     33 H13         1.7273    0.7874    1.9314 H         1 <0>         0.1312
     34 H14         1.7154   -0.7629    2.8059 H         1 <0>         0.1266
     35 H15        -0.6455    0.9439    2.4872 H         1 <0>         0.1326
     36 H16        -1.7715   -0.2808    1.8543 H         1 <0>         0.1321
     37 H17        -0.6745   -1.9799    3.5390 H         1 <0>         0.1342
     38 H18        -1.4054    1.6277    4.3304 H         1 <0>         0.0808
     39 H19        -0.3457    1.5745    5.7596 H         1 <0>         0.0815
     40 H20         0.3625    1.5915    4.1267 H         1 <0>         0.0749
     41 H21         0.6784   -1.2641    6.1732 H         1 <0>         0.0847
     42 H22        -0.7844   -0.4724    6.8072 H         1 <0>         0.0790
     43 H23        -0.9210   -1.9929    5.8920 H         1 <0>         0.0755
     44 H24         3.4546   -1.6456   -1.6488 H         1 <0>         0.0698
     45 H25         3.3461   -0.0572   -2.4446 H         1 <0>         0.0731
     46 H26         4.4879   -0.3036   -1.1015 H         1 <0>         0.0712
     47 H27         5.3605    4.2244   -0.9024 H         1 <0>         0.4006
     48 N1          0.2298   -0.6075    1.3328 N.4       1 <0>        -0.3809
     49 H28         0.1410   -1.6271    1.2509 H         1 <0>         0.4267
@<TRIPOS>BOND
     1    1    2 1
     2    1   23 1
     3    1   24 1
     4    1   25 1
     5    2    3 1
     6    2   13 1
     7    2    4 1
     8    4    5 1
     9    4    6 1
    10    4   48 1
    11    6    7 1
    12    6   26 1
    13    6   27 1
    14    7   12 ar
    15    7    8 ar
    16    8    9 ar
    17    8   28 1
    18    9   10 ar
    19    9   29 1
    20   10   11 ar
    21   10   22 1
    22   11   12 ar
    23   11   30 1
    24   12   13 1
    25   13   14 1
    26   13   21 1
    27   14   15 1
    28   14   31 1
    29   14   32 1
    30   15   33 1
    31   15   34 1
    32   15   48 1
    33   16   17 1
    34   16   35 1
    35   16   36 1
    36   16   48 1
    37   17   18 2
    38   17   37 1
    39   18   19 1
    40   18   20 1
    41   19   38 1
    42   19   39 1
    43   19   40 1
    44   20   41 1
    45   20   42 1
    46   20   43 1
    47   21   44 1
    48   21   45 1
    49   21   46 1
    50   22   47 1
    51   48   49 1
@<TRIPOS>MOLECULE
ZINC00013635
   48    50     0     0     0
SMALL
USER_CHARGES
1-(4-fluorophenyl)-4-[4-(5-fluoropyrimidin-2-yl)piperazin-1-yl]-butan-1-ol
@<TRIPOS>ATOM
      1 C1          1.0412    1.5837    3.0363 C.ar      1 <0>        -0.0821
      2 C2          1.6394    1.0387    4.1565 C.ar      1 <0>        -0.1487
      3 C3          1.1287   -0.1186    4.7195 C.ar      1 <0>         0.1092
      4 C4          0.0154   -0.7251    4.1629 C.ar      1 <0>        -0.1494
      5 C5         -0.5848   -0.1748    3.0463 C.ar      1 <0>        -0.0791
      6 C6         -0.0738    0.9805    2.4848 C.ar      1 <0>        -0.1421
      7 C7         -0.7288    1.5792    1.2668 C.3       1 <0>         0.1541
      8 H1         -1.7755    1.2768    1.2315 H         1 <0>         0.1127
      9 C8         -0.0127    1.0858    0.0080 C.3       1 <0>        -0.1461
     10 C9         -0.7527    1.5927   -1.2315 C.3       1 <0>        -0.1479
     11 C10        -0.0366    1.0992   -2.4903 C.3       1 <0>        -0.0043
     12 C11        -2.0820    0.9798   -3.7813 C.3       1 <0>         0.0008
     13 C12        -2.8179    1.5708   -4.9862 C.3       1 <0>         0.0351
     14 N1         -2.0359    1.3212   -6.2051 N.pl3     1 <0>        -0.4598
     15 C13        -0.7009    1.9272   -6.1043 C.3       1 <0>         0.0392
     16 C14         0.0349    1.3363   -4.8994 C.3       1 <0>         0.0015
     17 C15        -2.7060    1.7802   -7.3275 C.ar      1 <0>         0.4661
     18 N2         -2.1100    2.6561   -8.1225 N.ar      1 <0>        -0.5236
     19 C16        -2.7192    3.1114   -9.2050 C.ar      1 <0>         0.1560
     20 C17        -4.0015    2.6679   -9.4965 C.ar      1 <0>        -0.0098
     21 C18        -4.5973    1.7540   -8.6388 C.ar      1 <0>         0.1581
     22 N3         -3.9289    1.3363   -7.5762 N.ar      1 <0>        -0.4963
     23 F1         -4.6552    3.1161  -10.5905 F         1 <0>        -0.1081
     24 O1         -0.6468    3.0043    1.3339 O.3       1 <0>        -0.5522
     25 F2          1.7165   -0.6559    5.8109 F         1 <0>        -0.1327
     26 H2          1.4424    2.4836    2.5939 H         1 <0>         0.1302
     27 H3          2.5075    1.5128    4.5901 H         1 <0>         0.1407
     28 H4         -0.3836   -1.6280    4.6010 H         1 <0>         0.1411
     29 H5         -1.4532   -0.6477    2.6119 H         1 <0>         0.1345
     30 H6          0.0021   -0.0041    0.0020 H         1 <0>         0.0879
     31 H7          1.0099    1.4631    0.0003 H         1 <0>         0.0808
     32 H8         -1.7753    1.2154   -1.2238 H         1 <0>         0.0887
     33 H9         -0.7675    2.6825   -1.2255 H         1 <0>         0.0946
     34 H10         0.9860    1.4765   -2.4981 H         1 <0>         0.1312
     35 H11        -0.0218    0.0093   -2.4963 H         1 <0>         0.1334
     36 H12        -1.9834   -0.0982   -3.9084 H         1 <0>         0.1445
     37 H13        -2.6460    1.1891   -2.8723 H         1 <0>         0.1430
     38 H14        -2.9406    2.6448   -4.8464 H         1 <0>         0.0716
     39 H15        -3.7974    1.1020   -5.0802 H         1 <0>         0.1406
     40 H16        -0.7996    3.0053   -5.9772 H         1 <0>         0.0805
     41 H17        -0.1369    1.7180   -7.0132 H         1 <0>         0.1355
     42 H18         1.0143    1.8054   -4.8055 H         1 <0>         0.1423
     43 H19         0.1580    0.2623   -5.0390 H         1 <0>         0.1418
     44 H20        -2.2262    3.8222   -9.8517 H         1 <0>         0.1904
     45 H21        -5.5941    1.3881   -8.8363 H         1 <0>         0.1926
     46 H22         0.2576    3.3450    1.3680 H         1 <0>         0.3776
     47 N4         -0.7508    1.6135   -3.6783 N.4       1 <0>        -0.4002
     48 H23        -0.8709    2.6286   -3.5819 H         1 <0>         0.4263
@<TRIPOS>BOND
     1    1    6 ar
     2    1    2 ar
     3    1   26 1
     4    2    3 ar
     5    2   27 1
     6    3    4 ar
     7    3   25 1
     8    4    5 ar
     9    4   28 1
    10    5    6 ar
    11    5   29 1
    12    6    7 1
    13    7    8 1
    14    7    9 1
    15    7   24 1
    16    9   10 1
    17    9   30 1
    18    9   31 1
    19   10   11 1
    20   10   32 1
    21   10   33 1
    22   11   34 1
    23   11   35 1
    24   11   47 1
    25   12   13 1
    26   12   36 1
    27   12   37 1
    28   12   47 1
    29   13   14 1
    30   13   38 1
    31   13   39 1
    32   14   15 1
    33   14   17 1
    34   15   16 1
    35   15   40 1
    36   15   41 1
    37   16   42 1
    38   16   43 1
    39   16   47 1
    40   17   22 ar
    41   17   18 ar
    42   18   19 ar
    43   19   20 ar
    44   19   44 1
    45   20   21 ar
    46   20   23 1
    47   21   22 ar
    48   21   45 1
    49   24   46 1
    50   47   48 1
@<TRIPOS>MOLECULE
ZINC03995923
   48    50     0     0     0
SMALL
USER_CHARGES

@<TRIPOS>ATOM
      1 C1         -0.0167    1.3782    0.0096 C.ar      1 <0>        -0.0781
      2 C2          1.1703    2.0860    0.0021 C.ar      1 <0>        -0.1497
      3 C3          2.3786    1.4101   -0.0131 C.ar      1 <0>         0.1097
      4 C4          2.3962    0.0256   -0.0207 C.ar      1 <0>        -0.1490
      5 C5          1.2079   -0.6800   -0.0132 C.ar      1 <0>        -0.0821
      6 C6          0.0021   -0.0041    0.0020 C.ar      1 <0>        -0.1424
      7 C7         -1.2930   -0.7747    0.0103 C.3       1 <0>         0.1543
      8 H1         -2.0956   -0.1325    0.3729 H         1 <0>         0.1124
      9 C8         -1.6168   -1.2431   -1.4098 C.3       1 <0>        -0.1464
     10 C9         -2.9905   -1.9166   -1.4239 C.3       1 <0>        -0.1466
     11 C10        -3.3143   -2.3850   -2.8440 C.3       1 <0>        -0.0104
     12 N1         -4.6332   -3.0316   -2.8576 N.4       1 <0>        -0.3844
     13 C11        -5.6646   -2.0428   -2.5191 C.3       1 <0>        -0.0257
     14 C12        -7.0258   -2.7393   -2.4206 C.3       1 <0>         0.1070
     15 N2         -7.2699   -3.4658   -3.6763 N.pl3     1 <0>        -0.6032
     16 C13        -6.2137   -4.3590   -4.1770 C.3       1 <0>         0.1066
     17 C14        -4.8909   -3.5860   -4.1926 C.3       1 <0>        -0.0203
     18 C15        -8.4609   -3.3134   -4.3675 C.ar      1 <0>         0.5493
     19 N3         -9.3862   -2.4962   -3.8876 N.ar      1 <0>        -0.5400
     20 C16       -10.5347   -2.3272   -4.5222 C.ar      1 <0>         0.1757
     21 C17       -10.7629   -3.0188   -5.7035 C.ar      1 <0>        -0.0428
     22 C18        -9.7713   -3.8665   -6.1770 C.ar      1 <0>         0.1757
     23 N4         -8.6439   -3.9844   -5.4947 N.ar      1 <0>        -0.5402
     24 F1        -11.9244   -2.8705   -6.3773 F         1 <0>        -0.1137
     25 O1         -1.1663   -1.9098    0.8690 O.3       1 <0>        -0.5517
     26 F2          3.5396    2.1009   -0.0209 F         1 <0>        -0.1326
     27 H2         -0.9592    1.9052    0.0260 H         1 <0>         0.1346
     28 H3          1.1554    3.1659    0.0077 H         1 <0>         0.1412
     29 H4          3.3381   -0.5027   -0.0329 H         1 <0>         0.1407
     30 H5          1.2213   -1.7599   -0.0195 H         1 <0>         0.1299
     31 H6         -1.6258   -0.3852   -2.0822 H         1 <0>         0.0870
     32 H7         -0.8598   -1.9549   -1.7391 H         1 <0>         0.0808
     33 H8         -2.9815   -2.7744   -0.7516 H         1 <0>         0.0962
     34 H9         -3.7475   -1.2048   -1.0947 H         1 <0>         0.0889
     35 H10        -3.3233   -1.5271   -3.5164 H         1 <0>         0.1293
     36 H11        -2.5573   -3.0968   -3.1733 H         1 <0>         0.1327
     37 H12        -5.4236   -1.5790   -1.5626 H         1 <0>         0.1466
     38 H13        -5.7031   -1.2778   -3.2946 H         1 <0>         0.1328
     39 H14        -7.0185   -3.4413   -1.5868 H         1 <0>         0.0945
     40 H15        -7.8080   -1.9952   -2.2699 H         1 <0>         0.1410
     41 H16        -6.1244   -5.2246   -3.5205 H         1 <0>         0.0944
     42 H17        -6.4590   -4.6858   -5.1875 H         1 <0>         0.1412
     43 H18        -4.9528   -2.7743   -4.9175 H         1 <0>         0.1325
     44 H19        -4.0797   -4.2594   -4.4692 H         1 <0>         0.1453
     45 H20       -11.2854   -1.6597   -4.1256 H         1 <0>         0.1886
     46 H21        -9.9165   -4.4199   -7.0930 H         1 <0>         0.1886
     47 H22        -0.4692   -2.5262    0.6060 H         1 <0>         0.3777
     48 H23        -4.6484   -3.7762   -2.1768 H         1 <0>         0.4241
@<TRIPOS>BOND
     1    1    6 ar
     2    1    2 ar
     3    1   27 1
     4    2    3 ar
     5    2   28 1
     6    3    4 ar
     7    3   26 1
     8    4    5 ar
     9    4   29 1
    10    5    6 ar
    11    5   30 1
    12    6    7 1
    13    7    8 1
    14    7    9 1
    15    7   25 1
    16    9   10 1
    17    9   31 1
    18    9   32 1
    19   10   11 1
    20   10   33 1
    21   10   34 1
    22   11   12 1
    23   11   35 1
    24   11   36 1
    25   12   17 1
    26   12   13 1
    27   12   48 1
    28   13   14 1
    29   13   37 1
    30   13   38 1
    31   14   15 1
    32   14   39 1
    33   14   40 1
    34   15   16 1
    35   15   18 1
    36   16   17 1
    37   16   41 1
    38   16   42 1
    39   17   43 1
    40   17   44 1
    41   18   23 ar
    42   18   19 ar
    43   19   20 ar
    44   20   21 ar
    45   20   45 1
    46   21   22 ar
    47   21   24 1
    48   22   23 ar
    49   22   46 1
    50   25   47 1
@<TRIPOS>MOLECULE
ZINC03995923
   47    49     0     0     0
SMALL
USER_CHARGES

@<TRIPOS>ATOM
      1 C1         -0.0167    1.3782    0.0096 C.ar      1 <0>        -0.0807
      2 C2          1.1703    2.0860    0.0021 C.ar      1 <0>        -0.1505
      3 C3          2.3786    1.4101   -0.0131 C.ar      1 <0>         0.0991
      4 C4          2.3962    0.0256   -0.0207 C.ar      1 <0>        -0.1496
      5 C5          1.2079   -0.6800   -0.0132 C.ar      1 <0>        -0.0833
      6 C6          0.0021   -0.0041    0.0020 C.ar      1 <0>        -0.1286
      7 C7         -1.2930   -0.7747    0.0103 C.3       1 <0>         0.1510
      8 H1         -2.0956   -0.1325    0.3729 H         1 <0>         0.1092
      9 C8         -1.6168   -1.2431   -1.4098 C.3       1 <0>        -0.1459
     10 C9         -2.9905   -1.9166   -1.4239 C.3       1 <0>        -0.1128
     11 C10        -3.3143   -2.3850   -2.8440 C.3       1 <0>         0.0557
     12 N1         -4.6332   -3.0316   -2.8576 N.3       1 <0>        -0.5375
     13 C11        -5.6963   -2.0657   -2.5496 C.3       1 <0>         0.0377
     14 C12        -7.0277   -2.8084   -2.3950 C.3       1 <0>         0.1302
     15 N2         -7.2538   -3.6182   -3.6018 N.pl3     1 <0>        -0.5802
     16 C13        -6.1757   -4.5115   -4.0524 C.3       1 <0>         0.1305
     17 C14        -4.8779   -3.7017   -4.1417 C.3       1 <0>         0.0409
     18 C15        -8.4505   -3.5418   -4.2955 C.ar      1 <0>         0.5595
     19 N3         -9.3969   -2.7223   -3.8627 N.ar      1 <0>        -0.5478
     20 C16       -10.5515   -2.6247   -4.5010 C.ar      1 <0>         0.1770
     21 C17       -10.7639   -3.3942   -5.6363 C.ar      1 <0>        -0.0771
     22 C18        -9.7505   -4.2419   -6.0611 C.ar      1 <0>         0.1769
     23 N4         -8.6183   -4.2861   -5.3782 N.ar      1 <0>        -0.5481
     24 F1        -11.9312   -3.3201   -6.3125 F         1 <0>        -0.1263
     25 O1         -1.1663   -1.9098    0.8690 O.3       1 <0>        -0.5504
     26 F2          3.5396    2.1009   -0.0209 F         1 <0>        -0.1381
     27 H2         -0.9592    1.9052    0.0260 H         1 <0>         0.1345
     28 H3          1.1554    3.1659    0.0077 H         1 <0>         0.1378
     29 H4          3.3381   -0.5027   -0.0329 H         1 <0>         0.1376
     30 H5          1.2213   -1.7599   -0.0195 H         1 <0>         0.1309
     31 H6         -1.6258   -0.3852   -2.0822 H         1 <0>         0.0733
     32 H7         -0.8598   -1.9549   -1.7391 H         1 <0>         0.0697
     33 H8         -2.9815   -2.7744   -0.7516 H         1 <0>         0.0813
     34 H9         -3.7475   -1.2048   -1.0947 H         1 <0>         0.0639
     35 H10        -3.3233   -1.5271   -3.5164 H         1 <0>         0.0330
     36 H11        -2.5573   -3.0968   -3.1733 H         1 <0>         0.0762
     37 H12        -5.4589   -1.5475   -1.6204 H         1 <0>         0.0936
     38 H13        -5.7758   -1.3414   -3.3603 H         1 <0>         0.0376
     39 H14        -6.9852   -3.4581   -1.5208 H         1 <0>         0.0769
     40 H15        -7.8377   -2.0881   -2.2804 H         1 <0>         0.1022
     41 H16        -6.0514   -5.3249   -3.3375 H         1 <0>         0.0769
     42 H17        -6.4224   -4.9172   -5.0336 H         1 <0>         0.1024
     43 H18        -4.9687   -2.9547   -4.9303 H         1 <0>         0.0380
     44 H19        -4.0469   -4.3701   -4.3673 H         1 <0>         0.0904
     45 H20       -11.3194   -1.9549   -4.1429 H         1 <0>         0.1795
     46 H21        -9.8830   -4.8548   -6.9404 H         1 <0>         0.1794
     47 H22        -0.4692   -2.5262    0.6060 H         1 <0>         0.3740
@<TRIPOS>BOND
     1    1    6 ar
     2    1    2 ar
     3    1   27 1
     4    2    3 ar
     5    2   28 1
     6    3    4 ar
     7    3   26 1
     8    4    5 ar
     9    4   29 1
    10    5    6 ar
    11    5   30 1
    12    6    7 1
    13    7    8 1
    14    7    9 1
    15    7   25 1
    16    9   10 1
    17    9   31 1
    18    9   32 1
    19   10   11 1
    20   10   33 1
    21   10   34 1
    22   11   12 1
    23   11   35 1
    24   11   36 1
    25   12   17 1
    26   12   13 1
    27   13   14 1
    28   13   37 1
    29   13   38 1
    30   14   15 1
    31   14   39 1
    32   14   40 1
    33   15   16 1
    34   15   18 1
    35   16   17 1
    36   16   41 1
    37   16   42 1
    38   17   43 1
    39   17   44 1
    40   18   23 ar
    41   18   19 ar
    42   19   20 ar
    43   20   21 ar
    44   20   45 1
    45   21   22 ar
    46   21   24 1
    47   22   23 ar
    48   22   46 1
    49   25   47 1
@<TRIPOS>MOLECULE
ZINC00004620
   49    52     0     0     0
SMALL
USER_CHARGES
3-ethyl-N,N-bis(3-ethyl-2-oxo-benzoimidazol-7a-yl)-2-oxo-benzoimidazole-1-carboxamide
@<TRIPOS>ATOM
      1 C1          4.0876    3.7970   -1.4592 C.3       1 <0>        -0.1731
      2 C2          3.5992    3.8794   -0.0116 C.3       1 <0>         0.1220
      3 N1          2.1569    4.1362    0.0032 N.am      1 <0>        -0.5272
      4 C3          1.1565    3.1662    0.0080 C.ar      1 <0>         0.1049
      5 C4          1.1757    1.7798    0.0004 C.ar      1 <0>        -0.1065
      6 C5         -0.0126    1.0758    0.0080 C.ar      1 <0>        -0.0863
      7 C6         -1.2222    1.7487    0.0174 C.ar      1 <0>        -0.1115
      8 C7         -1.2507    3.1297    0.0308 C.ar      1 <0>        -0.0724
      9 C8         -0.0634    3.8444    0.0233 C.ar      1 <0>         0.0723
     10 N2          0.2343    5.2085    0.0273 N.am      1 <0>        -0.5064
     11 C9          1.5733    5.3493    0.0151 C.2       1 <0>         0.6885
     12 O1          2.1657    6.4115    0.0141 O.2       1 <0>        -0.5412
     13 C10        -0.6648    6.2124    0.0412 C.2       1 <0>         0.7302
     14 O2         -1.8542    5.9629    0.0515 O.2       1 <0>        -0.5383
     15 N3         -0.2449    7.4931    0.0436 N.am      1 <0>        -0.7234
     16 C11        -1.2222    8.5844    0.0586 C.3       1 <0>         0.1468
     17 C12        -1.6747    8.8827   -1.3736 C.3       1 <0>        -0.1622
     18 C13        -2.5834   10.1224   -1.3604 C.3       1 <0>         0.0377
     19 H1         -3.0531   10.3081   -2.3263 H         1 <0>         0.1595
     20 C14        -3.6226    9.9349   -0.2312 C.3       1 <0>        -0.1473
     21 C15        -2.9490   10.5207    1.0271 C.3       1 <0>        -0.1458
     22 C16        -1.5640   11.0091    0.5439 C.3       1 <0>         0.0381
     23 H2         -1.2182   11.8925    1.0807 H         1 <0>         0.1616
     24 C17        -0.5811    9.8339    0.6691 C.3       1 <0>        -0.1559
     25 C18        -2.4558   12.5439   -1.1247 C.3       1 <0>        -0.0370
     26 H3          3.8811    4.7394   -1.9666 H         1 <0>         0.0616
     27 H4          5.1607    3.6060   -1.4703 H         1 <0>         0.0833
     28 H5          3.5691    2.9870   -1.9721 H         1 <0>         0.0644
     29 H6          4.1177    4.6895    0.5012 H         1 <0>         0.0991
     30 H7          3.8057    2.9371    0.4957 H         1 <0>         0.0988
     31 H8          2.1177    1.2516   -0.0118 H         1 <0>         0.1385
     32 H9          0.0021   -0.0041    0.0020 H         1 <0>         0.1426
     33 H10        -2.1475    1.1917    0.0184 H         1 <0>         0.1419
     34 H11        -2.1963    3.6514    0.0430 H         1 <0>         0.1453
     35 H12         0.7044    7.6923    0.0354 H         1 <0>         0.4210
     36 H13        -2.0848    8.2904    0.6567 H         1 <0>         0.1137
     37 H14        -0.8031    9.0756   -1.9991 H         1 <0>         0.0929
     38 H15        -2.2270    8.0294   -1.7672 H         1 <0>         0.1185
     39 H16        -4.5365   10.4824   -0.4620 H         1 <0>         0.1017
     40 H17        -3.8397    8.8764   -0.0874 H         1 <0>         0.1156
     41 H18        -2.8348    9.7503    1.7897 H         1 <0>         0.1123
     42 H19        -3.5317   11.3562    1.4151 H         1 <0>         0.1025
     43 H20        -0.3596    9.6537    1.7211 H         1 <0>         0.1210
     44 H21         0.3396   10.0696    0.1355 H         1 <0>         0.0979
     45 H22        -1.8716   13.3583   -0.6963 H         1 <0>         0.1239
     46 H23        -2.5823   12.7110   -2.1944 H         1 <0>         0.1249
     47 H24        -3.4337   12.5066   -0.6447 H         1 <0>         0.1189
     48 N4         -1.7611   11.2378   -0.8832 N.4       1 <0>        -0.3950
     49 H25        -0.8559   11.2425   -1.3678 H         1 <0>         0.4274
@<TRIPOS>BOND
     1    1    2 1
     2    1   26 1
     3    1   27 1
     4    1   28 1
     5    2    3 1
     6    2   29 1
     7    2   30 1
     8    3   11 am
     9    3    4 1
    10    4    9 ar
    11    4    5 ar
    12    5    6 ar
    13    5   31 1
    14    6    7 ar
    15    6   32 1
    16    7    8 ar
    17    7   33 1
    18    8    9 ar
    19    8   34 1
    20    9   10 1
    21   10   11 am
    22   10   13 am
    23   11   12 2
    24   13   14 2
    25   13   15 am
    26   15   16 1
    27   15   35 1
    28   16   24 1
    29   16   17 1
    30   16   36 1
    31   17   18 1
    32   17   37 1
    33   17   38 1
    34   18   19 1
    35   18   20 1
    36   18   48 1
    37   20   21 1
    38   20   39 1
    39   20   40 1
    40   21   22 1
    41   21   41 1
    42   21   42 1
    43   22   23 1
    44   22   24 1
    45   22   48 1
    46   24   43 1
    47   24   44 1
    48   25   45 1
    49   25   46 1
    50   25   47 1
    51   25   48 1
    52   48   49 1
@<TRIPOS>MOLECULE
ZINC01668339
   34    35     0     0     0
SMALL
USER_CHARGES

@<TRIPOS>ATOM
      1 C1         -0.0167    1.3781    0.0096 C.ar      1 <0>        -0.1042
      2 C2          1.1709    2.0855    0.0021 C.ar      1 <0>        -0.1138
      3 C3          2.3773    1.4107   -0.0130 C.ar      1 <0>        -0.1103
      4 C4          2.3960    0.0285   -0.0201 C.ar      1 <0>        -0.1088
      5 C5          1.2084   -0.6789   -0.0117 C.ar      1 <0>        -0.1105
      6 C6          0.0021   -0.0041    0.0020 C.ar      1 <0>        -0.1139
      7 C7          3.7112   -0.7071   -0.0376 C.3       1 <0>        -0.0995
      8 C8          4.1714   -0.9633    1.3989 C.3       1 <0>        -0.0062
      9 N1          5.4533   -1.6804    1.3819 N.4       1 <0>        -0.3831
     10 C9          5.2622   -3.0072    0.7840 C.3       1 <0>        -0.0127
     11 C10         6.6091   -3.7272    0.6897 C.3       1 <0>        -0.1458
     12 C11         7.2002   -3.8788    2.0942 C.3       1 <0>        -0.1397
     13 C12         7.3259   -2.4944    2.7367 C.3       1 <0>        -0.1462
     14 C13         5.9524   -1.8201    2.7552 C.3       1 <0>        -0.0067
     15 H1         -0.9591    1.9053    0.0259 H         1 <0>         0.1299
     16 H2          1.1563    3.1654    0.0076 H         1 <0>         0.1297
     17 H3          3.3051    1.9634   -0.0196 H         1 <0>         0.1241
     18 H4          1.2231   -1.7588   -0.0176 H         1 <0>         0.1234
     19 H5         -0.9258   -0.5567    0.0082 H         1 <0>         0.1295
     20 H6          3.5884   -1.6586   -0.5549 H         1 <0>         0.0945
     21 H7          4.4573   -0.1052   -0.5563 H         1 <0>         0.0945
     22 H8          4.2941   -0.0118    1.9163 H         1 <0>         0.1319
     23 H9          3.4252   -1.5652    1.9176 H         1 <0>         0.1303
     24 H10         4.5817   -3.5903    1.4046 H         1 <0>         0.1283
     25 H11         4.8385   -2.8978   -0.2143 H         1 <0>         0.1311
     26 H12         6.4647   -4.7128    0.2472 H         1 <0>         0.1118
     27 H13         7.2903   -3.1451    0.0690 H         1 <0>         0.0875
     28 H14         6.5441   -4.5037    2.7003 H         1 <0>         0.0816
     29 H15         8.1854   -4.3404    2.0272 H         1 <0>         0.0942
     30 H16         7.6939   -2.5988    3.7574 H         1 <0>         0.1121
     31 H17         8.0219   -1.8867    2.1585 H         1 <0>         0.0875
     32 H18         6.0382   -0.8342    3.2121 H         1 <0>         0.1297
     33 H19         5.2572   -2.4284    3.3338 H         1 <0>         0.1279
     34 H20         6.1215   -1.1598    0.8336 H         1 <0>         0.4220
@<TRIPOS>BOND
     1    1    6 ar
     2    1    2 ar
     3    1   15 1
     4    2    3 ar
     5    2   16 1
     6    3    4 ar
     7    3   17 1
     8    4    5 ar
     9    4    7 1
    10    5    6 ar
    11    5   18 1
    12    6   19 1
    13    7    8 1
    14    7   20 1
    15    7   21 1
    16    8    9 1
    17    8   22 1
    18    8   23 1
    19    9   14 1
    20    9   10 1
    21    9   34 1
    22   10   11 1
    23   10   24 1
    24   10   25 1
    25   11   12 1
    26   11   26 1
    27   11   27 1
    28   12   13 1
    29   12   28 1
    30   12   29 1
    31   13   14 1
    32   13   30 1
    33   13   31 1
    34   14   32 1
    35   14   33 1
