@<TRIPOS>MOLECULE
ZINC13520815
   44    47     0     0     0
SMALL
USER_CHARGES

@<TRIPOS>ATOM
      1 C1         -0.0187    1.5258    0.0104 C.3       1 <0>        -0.1354
      2 C2          0.0021   -0.0041    0.0020 C.3       1 <0>        -0.0564
      3 C3         -1.4142   -0.5425    0.0489 C.3       1 <0>        -0.1016
      4 C4         -2.0973    0.0441    1.2987 C.3       1 <0>        -0.1130
      5 C5         -1.3125   -0.3073    2.5542 C.3       1 <0>        -0.0424
      6 H1         -1.3075   -1.3927    2.6533 H         1 <0>         0.0765
      7 C6         -1.9424    0.2651    3.7900 C.ar      1 <0>        -0.0773
      8 C7         -3.3273    0.3484    3.8443 C.ar      1 <0>        -0.1030
      9 C8         -3.9576    0.8569    4.9598 C.ar      1 <0>        -0.1472
     10 C9         -3.2003    1.2884    6.0396 C.ar      1 <0>         0.1024
     11 C10        -1.8198    1.2087    5.9840 C.ar      1 <0>        -0.1480
     12 C11        -1.1856    0.7013    4.8579 C.ar      1 <0>        -0.0577
     13 C12         0.3200    0.6669    4.8604 C.3       1 <0>        -0.0825
     14 C13         0.8561   -0.2331    3.7476 C.3       1 <0>        -0.1135
     15 C14         0.1446    0.1628    2.4542 C.3       1 <0>        -0.0739
     16 H2          0.1741    1.2443    2.3212 H         1 <0>         0.0865
     17 C15         0.7512   -0.5345    1.2564 C.3       1 <0>        -0.0835
     18 H3          0.6224   -1.6140    1.3350 H         1 <0>         0.0754
     19 C16         2.2091   -0.2046    0.9567 C.3       1 <0>        -0.1120
     20 C17         2.3296   -0.2454   -0.5872 C.3       1 <0>        -0.1564
     21 C18         0.8992   -0.5108   -1.1319 C.3       1 <0>         0.1090
     22 H4          0.7424   -1.5760   -1.3012 H         1 <0>         0.0609
     23 O1          0.6684    0.2327   -2.3302 O.3       1 <0>        -0.5588
     24 O2         -3.8114    1.7874    7.1461 O.3       1 <0>        -0.5003
     25 H5          1.0039    1.9031    0.0027 H         1 <0>         0.0539
     26 H6         -0.5459    1.8868   -0.8726 H         1 <0>         0.0599
     27 H7         -0.5289    1.8773    0.9072 H         1 <0>         0.0606
     28 H8         -1.9557   -0.2363   -0.8462 H         1 <0>         0.0693
     29 H9         -1.3938   -1.6303    0.1152 H         1 <0>         0.0628
     30 H10        -2.1534    1.1283    1.2019 H         1 <0>         0.0698
     31 H11        -3.1059   -0.3612    1.3804 H         1 <0>         0.0659
     32 H12        -3.9166    0.0119    3.0041 H         1 <0>         0.1276
     33 H13        -5.0353    0.9194    4.9932 H         1 <0>         0.1275
     34 H14        -1.2303    1.5447    6.8243 H         1 <0>         0.1259
     35 H15         0.7005    1.6781    4.7162 H         1 <0>         0.0774
     36 H16         0.6668    0.2900    5.8226 H         1 <0>         0.0749
     37 H17         1.9304   -0.0841    3.6397 H         1 <0>         0.0720
     38 H18         0.6512   -1.2764    3.9877 H         1 <0>         0.0665
     39 H19         2.4554    0.7900    1.3285 H         1 <0>         0.0683
     40 H20         2.8651   -0.9498    1.4065 H         1 <0>         0.0656
     41 H21         2.7000    0.7100   -0.9588 H         1 <0>         0.0739
     42 H22         3.0000   -1.0500   -0.8889 H         1 <0>         0.0643
     43 H23         1.2119   -0.0490   -3.0787 H         1 <0>         0.3759
     44 H24        -4.0214    1.1203    7.8140 H         1 <0>         0.3901
@<TRIPOS>BOND
     1    1    2 1
     2    1   25 1
     3    1   26 1
     4    1   27 1
     5    2   17 1
     6    2   21 1
     7    2    3 1
     8    3    4 1
     9    3   28 1
    10    3   29 1
    11    4    5 1
    12    4   30 1
    13    4   31 1
    14    5    6 1
    15    5   15 1
    16    5    7 1
    17    7   12 ar
    18    7    8 ar
    19    8    9 ar
    20    8   32 1
    21    9   10 ar
    22    9   33 1
    23   10   11 ar
    24   10   24 1
    25   11   12 ar
    26   11   34 1
    27   12   13 1
    28   13   14 1
    29   13   35 1
    30   13   36 1
    31   14   15 1
    32   14   37 1
    33   14   38 1
    34   15   16 1
    35   15   17 1
    36   17   18 1
    37   17   19 1
    38   19   20 1
    39   19   39 1
    40   19   40 1
    41   20   21 1
    42   20   41 1
    43   20   42 1
    44   21   22 1
    45   21   23 1
    46   23   43 1
    47   24   44 1
@<TRIPOS>MOLECULE
ZINC05999108
   49    51     0     0     0
SMALL
USER_CHARGES
4-[[4-[(4-hydroxy-3-methoxy-phenyl)methyl]tetrahydrofuran-3-yl]methyl]-2-methoxy-phenol
@<TRIPOS>ATOM
      1 C1         -1.2737   -3.6780    2.7787 C.3       1 <0>         0.0242
      2 O1         -1.3917   -4.5329    1.6397 O.3       1 <0>        -0.3073
      3 C2         -0.6323   -4.2240    0.5546 C.ar      1 <0>         0.1068
      4 C3          0.2116   -3.1254    0.5876 C.ar      1 <0>        -0.1933
      5 C4          0.9782   -2.8093   -0.5185 C.ar      1 <0>        -0.0517
      6 C5          0.9138   -3.5937   -1.6551 C.ar      1 <0>        -0.1370
      7 C6          0.0782   -4.6943   -1.6927 C.ar      1 <0>        -0.1027
      8 C7         -0.6972   -5.0135   -0.5895 C.ar      1 <0>         0.0704
      9 O2         -1.5200   -6.0956   -0.6250 O.3       1 <0>        -0.4868
     10 C8          1.8909   -1.6106   -0.4829 C.3       1 <0>        -0.0725
     11 C9          1.1335   -0.3781   -0.9811 C.3       1 <0>        -0.1112
     12 H1          0.7300   -0.5559   -1.9779 H         1 <0>         0.0908
     13 C10         0.0021   -0.0041    0.0020 C.3       1 <0>         0.0498
     14 O3         -0.0175    1.4400    0.0100 O.3       1 <0>        -0.3728
     15 C11         1.3704    1.8394   -0.0011 C.3       1 <0>         0.0428
     16 C12         2.0544    0.8626   -0.9832 C.3       1 <0>        -0.1114
     17 H2          3.0507    0.5994   -0.6281 H         1 <0>         0.0905
     18 C13         2.1270    1.4739   -2.3839 C.3       1 <0>        -0.0724
     19 C14         3.1236    2.6044   -2.3875 C.ar      1 <0>        -0.0506
     20 C15         4.4512    2.3526   -2.6796 C.ar      1 <0>        -0.1378
     21 C16         5.3692    3.3862   -2.6842 C.ar      1 <0>        -0.1027
     22 C17         4.9594    4.6781   -2.3957 C.ar      1 <0>         0.0696
     23 C18         3.6231    4.9315   -2.1017 C.ar      1 <0>         0.1072
     24 C19         2.7071    3.8918   -2.1043 C.ar      1 <0>        -0.1949
     25 O4          3.2161    6.1976   -1.8173 O.3       1 <0>        -0.3075
     26 C20         1.8297    6.3831   -1.5250 C.3       1 <0>         0.0238
     27 O5          5.8613    5.6959   -2.3994 O.3       1 <0>        -0.4869
     28 H3         -1.9310   -4.0359    3.5712 H         1 <0>         0.1028
     29 H4         -0.2425   -3.6835    3.1318 H         1 <0>         0.0557
     30 H5         -1.5576   -2.6627    2.5019 H         1 <0>         0.0563
     31 H6          0.2673   -2.5138    1.4760 H         1 <0>         0.1316
     32 H7          1.5173   -3.3458   -2.5157 H         1 <0>         0.1291
     33 H8          0.0300   -5.3056   -2.5817 H         1 <0>         0.1367
     34 H9         -1.1052   -6.9153   -0.3230 H         1 <0>         0.3870
     35 H10         2.7531   -1.7912   -1.1248 H         1 <0>         0.0826
     36 H11         2.2283   -1.4410    0.5396 H         1 <0>         0.0761
     37 H12         0.2236   -0.3860    0.9986 H         1 <0>         0.0585
     38 H13        -0.9522   -0.3946   -0.3515 H         1 <0>         0.0911
     39 H14         1.4672    2.8651   -0.3571 H         1 <0>         0.0939
     40 H15         1.8018    1.7402    0.9949 H         1 <0>         0.0599
     41 H16         2.4399    0.7115   -3.0972 H         1 <0>         0.0809
     42 H17         1.1452    1.8541   -2.6658 H         1 <0>         0.0791
     43 H18         4.7719    1.3461   -2.9044 H         1 <0>         0.1289
     44 H19         6.4057    3.1869   -2.9131 H         1 <0>         0.1365
     45 H20         1.6685    4.0866   -1.8811 H         1 <0>         0.1340
     46 H21         1.2326    6.0689   -2.3810 H         1 <0>         0.0565
     47 H22         1.5589    5.7859   -0.6543 H         1 <0>         0.0563
     48 H23         1.6401    7.4361   -1.3166 H         1 <0>         0.1029
     49 H24         5.9604    6.1305   -3.2575 H         1 <0>         0.3869
@<TRIPOS>BOND
     1    1    2 1
     2    1   28 1
     3    1   29 1
     4    1   30 1
     5    2    3 1
     6    3    8 ar
     7    3    4 ar
     8    4    5 ar
     9    4   31 1
    10    5    6 ar
    11    5   10 1
    12    6    7 ar
    13    6   32 1
    14    7    8 ar
    15    7   33 1
    16    8    9 1
    17    9   34 1
    18   10   11 1
    19   10   35 1
    20   10   36 1
    21   11   12 1
    22   11   16 1
    23   11   13 1
    24   13   14 1
    25   13   37 1
    26   13   38 1
    27   14   15 1
    28   15   16 1
    29   15   39 1
    30   15   40 1
    31   16   17 1
    32   16   18 1
    33   18   19 1
    34   18   41 1
    35   18   42 1
    36   19   24 ar
    37   19   20 ar
    38   20   21 ar
    39   20   43 1
    40   21   22 ar
    41   21   44 1
    42   22   23 ar
    43   22   27 1
    44   23   24 ar
    45   23   25 1
    46   24   45 1
    47   25   26 1
    48   26   46 1
    49   26   47 1
    50   26   48 1
    51   27   49 1
@<TRIPOS>MOLECULE
ZINC06500184
   49    52     0     0     0
SMALL
USER_CHARGES

@<TRIPOS>ATOM
      1 C1         -0.0187    1.5258    0.0104 C.3       1 <0>        -0.1340
      2 C2          0.0021   -0.0041    0.0020 C.3       1 <0>        -0.0575
      3 C3         -1.4158   -0.5376    0.0743 C.3       1 <0>        -0.1031
      4 C4         -2.0776    0.1004    1.3058 C.3       1 <0>        -0.1217
      5 C5         -1.2987   -0.1970    2.5836 C.3       1 <0>        -0.0658
      6 H1         -1.3515   -1.2658    2.7907 H         1 <0>         0.0710
      7 C6          0.1752    0.2165    2.4630 C.3       1 <0>        -0.0778
      8 H2          0.2494    1.2951    2.3243 H         1 <0>         0.0900
      9 C7          0.7514   -0.5272    1.2569 C.3       1 <0>        -0.0832
     10 H3          0.6125   -1.6031    1.3628 H         1 <0>         0.0775
     11 C8          2.2067   -0.1924    0.9110 C.3       1 <0>        -0.1133
     12 C9          2.3039   -0.5736   -0.5914 C.3       1 <0>        -0.1573
     13 C10         0.8625   -0.5030   -1.1542 C.3       1 <0>         0.1103
     14 H4          0.5320   -1.4921   -1.4715 H         1 <0>         0.0566
     15 O1          0.8024    0.4146   -2.2480 O.3       1 <0>        -0.5599
     16 C11         0.9157   -0.1993    3.7375 C.3       1 <0>        -0.1136
     17 C12         0.3625    0.5959    4.9221 C.3       1 <0>        -0.0979
     18 C13        -1.1396    0.3896    4.9907 C.2       1 <0>        -0.0157
     19 C14        -1.6676    0.0666    6.1711 C.2       1 <0>        -0.2431
     20 C15        -3.1159   -0.1282    6.2982 C.2       1 <0>         0.3881
     21 O2         -3.5965   -0.7740    7.2060 O.2       1 <0>        -0.4582
     22 C16        -3.9807    0.5207    5.2350 C.3       1 <0>        -0.1685
     23 C17        -3.3979    0.1372    3.8755 C.3       1 <0>        -0.1050
     24 C18        -1.9353    0.5692    3.7501 C.3       1 <0>        -0.0312
     25 C19        -1.9191    2.0586    3.4006 C.3       1 <0>        -0.1502
     26 H5          1.0039    1.9031    0.0027 H         1 <0>         0.0538
     27 H6         -0.5459    1.8868   -0.8726 H         1 <0>         0.0594
     28 H7         -0.5289    1.8773    0.9072 H         1 <0>         0.0609
     29 H8         -1.9632   -0.2607   -0.8268 H         1 <0>         0.0672
     30 H9         -1.3995   -1.6222    0.1815 H         1 <0>         0.0623
     31 H10        -2.1276    1.1799    1.1632 H         1 <0>         0.0756
     32 H11        -3.0901   -0.2904    1.4077 H         1 <0>         0.0651
     33 H12         2.4020    0.8706    1.0526 H         1 <0>         0.0707
     34 H13         2.8929   -0.7943    1.5068 H         1 <0>         0.0660
     35 H14         2.9456    0.1342   -1.1162 H         1 <0>         0.0725
     36 H15         2.6974   -1.5847   -0.6961 H         1 <0>         0.0666
     37 H16         1.3308    0.1496   -3.0133 H         1 <0>         0.3752
     38 H17         0.7681   -1.2649    3.9134 H         1 <0>         0.0654
     39 H18         1.9798    0.0081    3.6247 H         1 <0>         0.0717
     40 H19         0.8223    0.2433    5.8454 H         1 <0>         0.0773
     41 H20         0.5800    1.6550    4.7845 H         1 <0>         0.0842
     42 H21        -1.0290   -0.0520    7.0340 H         1 <0>         0.1336
     43 H22        -5.0043    0.1549    5.3159 H         1 <0>         0.0921
     44 H23        -3.9630    1.6041    5.3535 H         1 <0>         0.0997
     45 H24        -3.4588   -0.9444    3.7551 H         1 <0>         0.0683
     46 H25        -3.9842    0.6144    3.0902 H         1 <0>         0.0838
     47 H26        -2.4886    2.2234    2.4859 H         1 <0>         0.0698
     48 H27        -2.3671    2.6278    4.2151 H         1 <0>         0.0583
     49 H28        -0.8900    2.3857    3.2518 H         1 <0>         0.0638
@<TRIPOS>BOND
     1    1    2 1
     2    1   26 1
     3    1   27 1
     4    1   28 1
     5    2    9 1
     6    2   13 1
     7    2    3 1
     8    3    4 1
     9    3   29 1
    10    3   30 1
    11    4    5 1
    12    4   31 1
    13    4   32 1
    14    5    6 1
    15    5   24 1
    16    5    7 1
    17    7    8 1
    18    7    9 1
    19    7   16 1
    20    9   10 1
    21    9   11 1
    22   11   12 1
    23   11   33 1
    24   11   34 1
    25   12   13 1
    26   12   35 1
    27   12   36 1
    28   13   14 1
    29   13   15 1
    30   15   37 1
    31   16   17 1
    32   16   38 1
    33   16   39 1
    34   17   18 1
    35   17   40 1
    36   17   41 1
    37   18   24 1
    38   18   19 2
    39   19   20 1
    40   19   42 1
    41   20   21 2
    42   20   22 1
    43   22   23 1
    44   22   43 1
    45   22   44 1
    46   23   24 1
    47   23   45 1
    48   23   46 1
    49   24   25 1
    50   25   47 1
    51   25   48 1
    52   25   49 1
@<TRIPOS>MOLECULE
ZINC06500184
   49    52     0     0     0
SMALL
USER_CHARGES

@<TRIPOS>ATOM
      1 C1         -0.0187    1.5258    0.0104 C.3       1 <0>        -0.1331
      2 C2          0.0021   -0.0041    0.0020 C.3       1 <0>        -0.0572
      3 C3         -1.4159   -0.5378    0.0735 C.3       1 <0>        -0.1036
      4 C4         -2.0778    0.0989    1.3057 C.3       1 <0>        -0.1199
      5 C5         -1.2984   -0.2007    2.5830 C.3       1 <0>        -0.0660
      6 H1         -1.3372   -1.2751    2.7625 H         1 <0>         0.0674
      7 C6          0.1739    0.2141    2.4646 C.3       1 <0>        -0.0703
      8 H2          0.2526    1.2937    2.3369 H         1 <0>         0.0869
      9 C7          0.7513   -0.5274    1.2567 C.3       1 <0>        -0.0830
     10 H3          0.6138   -1.6036    1.3607 H         1 <0>         0.0776
     11 C8          2.2065   -0.1916    0.9118 C.3       1 <0>        -0.1135
     12 C9          2.3043   -0.5732   -0.5906 C.3       1 <0>        -0.1573
     13 C10         0.8630   -0.5032   -1.1539 C.3       1 <0>         0.1102
     14 H4          0.5330   -1.4925   -1.4709 H         1 <0>         0.0566
     15 O1          0.8030    0.4140   -2.2480 O.3       1 <0>        -0.5599
     16 C11         0.8956   -0.2225    3.7452 C.3       1 <0>        -0.0859
     17 C12         0.2103    0.4051    4.9251 C.2       1 <0>        -0.1410
     18 C13        -1.0508    0.7245    4.9182 C.2       1 <0>        -0.1109
     19 C14        -1.9511    0.5024    3.7621 C.3       1 <0>        -0.0170
     20 C15        -3.1893   -0.2815    4.2070 C.3       1 <0>        -0.1001
     21 C16        -3.8910    0.4663    5.3441 C.3       1 <0>        -0.1766
     22 C17        -2.9135    0.6483    6.4838 C.2       1 <0>         0.3682
     23 O2         -3.1778    0.2614    7.5968 O.2       1 <0>        -0.4548
     24 C18        -1.6335    1.3627    6.1707 C.3       1 <0>        -0.1377
     25 C19        -2.4235    1.8799    3.2929 C.3       1 <0>        -0.1529
     26 H5          1.0039    1.9031    0.0027 H         1 <0>         0.0535
     27 H6         -0.5459    1.8868   -0.8726 H         1 <0>         0.0590
     28 H7         -0.5289    1.8773    0.9072 H         1 <0>         0.0606
     29 H8         -1.9632   -0.2600   -0.8272 H         1 <0>         0.0666
     30 H9         -1.3995   -1.6225    0.1796 H         1 <0>         0.0618
     31 H10        -2.1275    1.1785    1.1645 H         1 <0>         0.0770
     32 H11        -3.0902   -0.2920    1.4072 H         1 <0>         0.0628
     33 H12         2.4010    0.8715    1.0532 H         1 <0>         0.0707
     34 H13         2.8928   -0.7930    1.5079 H         1 <0>         0.0661
     35 H14         2.9458    0.1348   -1.1154 H         1 <0>         0.0724
     36 H15         2.6981   -1.5842   -0.6950 H         1 <0>         0.0666
     37 H16         1.3317    0.1488   -3.0130 H         1 <0>         0.3750
     38 H17         0.8562   -1.3081    3.8348 H         1 <0>         0.0754
     39 H18         1.9344    0.1056    3.7091 H         1 <0>         0.0741
     40 H19         0.7884    0.5990    5.8165 H         1 <0>         0.1079
     41 H20        -3.8739   -0.3867    3.3653 H         1 <0>         0.0803
     42 H21        -2.8877   -1.2696    4.5544 H         1 <0>         0.0669
     43 H22        -4.2240    1.4416    4.9892 H         1 <0>         0.1021
     44 H23        -4.7487   -0.1122    5.6873 H         1 <0>         0.0882
     45 H24        -0.9488    1.2273    7.0080 H         1 <0>         0.0925
     46 H25        -1.8046    2.4254    5.9994 H         1 <0>         0.1129
     47 H26        -3.1424    1.7608    2.4822 H         1 <0>         0.0667
     48 H27        -2.8962    2.4043    4.1235 H         1 <0>         0.0562
     49 H28        -1.5687    2.4560    2.9388 H         1 <0>         0.0588
@<TRIPOS>BOND
     1    1    2 1
     2    1   26 1
     3    1   27 1
     4    1   28 1
     5    2    9 1
     6    2   13 1
     7    2    3 1
     8    3    4 1
     9    3   29 1
    10    3   30 1
    11    4    5 1
    12    4   31 1
    13    4   32 1
    14    5    6 1
    15    5   19 1
    16    5    7 1
    17    7    8 1
    18    7    9 1
    19    7   16 1
    20    9   10 1
    21    9   11 1
    22   11   12 1
    23   11   33 1
    24   11   34 1
    25   12   13 1
    26   12   35 1
    27   12   36 1
    28   13   14 1
    29   13   15 1
    30   15   37 1
    31   16   17 1
    32   16   38 1
    33   16   39 1
    34   17   18 2
    35   17   40 1
    36   18   24 1
    37   18   19 1
    38   19   20 1
    39   19   25 1
    40   20   21 1
    41   20   41 1
    42   20   42 1
    43   21   22 1
    44   21   43 1
    45   21   44 1
    46   22   23 2
    47   22   24 1
    48   24   45 1
    49   24   46 1
    50   25   47 1
    51   25   48 1
    52   25   49 1
@<TRIPOS>MOLECULE
ZINC04983565
   51    54     0     0     0
SMALL
USER_CHARGES
hydroxy-dimethyl-BLAHone
@<TRIPOS>ATOM
      1 C1         -2.8804    6.5882   -3.2546 C.3       1 <0>        -0.1305
      2 C2         -2.8844    7.4352   -1.9793 C.3       1 <0>        -0.0486
      3 C3         -1.5158    8.0048   -1.7062 C.3       1 <0>        -0.1032
      4 C4         -0.7408    7.1168   -0.7137 C.3       1 <0>        -0.1071
      5 C5         -1.1728    5.6682   -0.8736 C.3       1 <0>        -0.0747
      6 H1         -1.1622    5.4350   -1.9446 H         1 <0>         0.0733
      7 C6         -2.6012    5.4964   -0.3703 C.3       1 <0>        -0.0663
      8 H2         -2.5636    5.4735    0.7387 H         1 <0>         0.0680
      9 C7         -3.4434    6.6675   -0.7652 C.3       1 <0>        -0.0725
     10 H3         -3.4936    7.3678    0.0973 H         1 <0>         0.0692
     11 C8         -4.8882    6.3864   -1.2047 C.3       1 <0>        -0.1132
     12 C9         -5.3001    7.7048   -1.9180 C.3       1 <0>        -0.1589
     13 C10        -3.9922    8.4971   -2.1657 C.3       1 <0>         0.1009
     14 H4         -3.8711    9.2872   -1.4353 H         1 <0>         0.0591
     15 O1         -3.9532    9.0017   -3.4977 O.3       1 <0>        -0.5568
     16 C11        -3.1148    4.1349   -0.8231 C.3       1 <0>        -0.1106
     17 C12        -2.3345    3.0913   -0.0213 C.3       1 <0>        -0.0976
     18 C13        -0.8367    3.2869   -0.1726 C.2       1 <0>        -0.0142
     19 C14        -0.1520    2.1663   -0.2264 C.2       1 <0>        -0.2132
     20 C15         1.2194    1.8186   -0.3900 C.2       1 <0>         0.5570
     21 O2          1.4437    0.6231   -0.4099 O.2       1 <0>        -0.5669
     22 N1          2.2888    2.5861   -0.5292 N.am      1 <0>        -0.7086
     23 C16         2.2689    4.0249   -0.4886 C.3       1 <0>         0.1074
     24 C17         1.0502    4.6504   -1.0792 C.3       1 <0>        -0.1308
     25 C18        -0.2197    4.6487   -0.2693 C.3       1 <0>        -0.0153
     26 C19         0.1038    5.1041    1.1462 C.3       1 <0>        -0.1477
     27 H5         -3.9071    6.3846   -3.5588 H         1 <0>         0.0563
     28 H6         -2.3667    7.1299   -4.0489 H         1 <0>         0.0584
     29 H7         -2.3645    5.6471   -3.0641 H         1 <0>         0.0544
     30 H8         -0.9504    8.0796   -2.6425 H         1 <0>         0.0654
     31 H9         -1.6117    9.0139   -1.2872 H         1 <0>         0.0613
     32 H10        -0.9516    7.4622    0.3025 H         1 <0>         0.0639
     33 H11         0.3290    7.2169   -0.9044 H         1 <0>         0.0669
     34 H12        -4.9441    5.5398   -1.8816 H         1 <0>         0.0741
     35 H13        -5.5229    6.2157   -0.3322 H         1 <0>         0.0644
     36 H14        -5.9703    8.2798   -1.2802 H         1 <0>         0.0646
     37 H15        -5.7871    7.4792   -2.8659 H         1 <0>         0.0736
     38 H16        -4.6233    9.6736   -3.6835 H         1 <0>         0.3748
     39 H17        -4.1766    4.0392   -0.6049 H         1 <0>         0.0757
     40 H18        -2.9315    3.9897   -1.8844 H         1 <0>         0.0699
     41 H19        -2.6028    3.1830    1.0308 H         1 <0>         0.0821
     42 H20        -2.6066    2.0987   -0.3761 H         1 <0>         0.0793
     43 H21        -0.7861    1.2953   -0.1194 H         1 <0>         0.1236
     44 H22         3.1442    2.1491   -0.6720 H         1 <0>         0.4061
     45 H23         2.4324    4.3537    0.5317 H         1 <0>         0.0673
     46 H24         3.1372    4.3748   -1.0707 H         1 <0>         0.0770
     47 H25         1.2904    5.6896   -1.3290 H         1 <0>         0.0898
     48 H26         0.8371    4.1455   -2.0297 H         1 <0>         0.0680
     49 H27         0.5232    6.1098    1.1174 H         1 <0>         0.0681
     50 H28        -0.8076    5.1076    1.7440 H         1 <0>         0.0608
     51 H29         0.8276    4.4212    1.5911 H         1 <0>         0.0563
@<TRIPOS>BOND
     1    1    2 1
     2    1   27 1
     3    1   28 1
     4    1   29 1
     5    2    9 1
     6    2   13 1
     7    2    3 1
     8    3    4 1
     9    3   30 1
    10    3   31 1
    11    4    5 1
    12    4   32 1
    13    4   33 1
    14    5    6 1
    15    5   25 1
    16    5    7 1
    17    7    8 1
    18    7    9 1
    19    7   16 1
    20    9   10 1
    21    9   11 1
    22   11   12 1
    23   11   34 1
    24   11   35 1
    25   12   13 1
    26   12   36 1
    27   12   37 1
    28   13   14 1
    29   13   15 1
    30   15   38 1
    31   16   17 1
    32   16   39 1
    33   16   40 1
    34   17   18 1
    35   17   41 1
    36   17   42 1
    37   18   25 1
    38   18   19 2
    39   19   20 1
    40   19   43 1
    41   20   21 2
    42   20   22 am
    43   22   23 1
    44   22   44 1
    45   23   24 1
    46   23   45 1
    47   23   46 1
    48   24   25 1
    49   24   47 1
    50   24   48 1
    51   25   26 1
    52   26   49 1
    53   26   50 1
    54   26   51 1
