@<TRIPOS>MOLECULE
ZINC04098876
   71    76     0     0     0
SMALL
USER_CHARGES
hydroxy-tetramethyl-BLAHone
@<TRIPOS>ATOM
      1 C1         -8.8989   -3.5415   -2.9970 C.3       1 <0>        -0.1518
      2 C2         -7.8435   -2.8158   -2.1601 C.3       1 <0>        -0.1067
      3 H1         -8.2876   -2.5101   -1.2128 H         1 <0>         0.0977
      4 C3         -6.6742   -3.7762   -1.8805 C.3       1 <0>        -0.1258
      5 C4         -5.6130   -2.9789   -1.1467 C.3       1 <0>         0.0690
      6 H2         -6.0363   -2.5406   -0.2429 H         1 <0>         0.0863
      7 C5         -5.1481   -1.8515   -2.1115 C.3       1 <0>        -0.0261
      8 H3         -4.8976   -2.2634   -3.0891 H         1 <0>         0.1563
      9 C6         -3.8955   -1.3494   -1.3858 C.3       1 <0>        -0.1164
     10 H4         -3.1315   -1.0440   -2.1007 H         1 <0>         0.1227
     11 C7         -3.4364   -2.5943   -0.5919 C.3       1 <0>         0.1490
     12 O1         -4.3938   -3.6472   -0.8340 O.3       1 <0>        -0.3181
     13 C8         -3.3586   -2.2727    0.8903 C.3       1 <0>        -0.1324
     14 C9         -2.2281   -1.3120    1.2394 C.3       1 <0>        -0.1137
     15 C10        -1.4278   -0.8986    0.0092 C.3       1 <0>        -0.0612
     16 H5         -1.9826   -0.1798   -0.5938 H         1 <0>         0.1028
     17 C11        -0.0555   -0.3468    0.3964 C.3       1 <0>        -0.0838
     18 H6          0.2974   -0.7930    1.3261 H         1 <0>         0.0958
     19 C12         0.0380    1.1711    0.4510 C.3       1 <0>        -0.0738
     20 C13         1.5032    1.5128    0.5866 C.2       1 <0>        -0.1653
     21 C14         2.4717    0.7305    0.1992 C.2       1 <0>        -0.0964
     22 C15         3.8980    1.1884    0.4420 C.3       1 <0>        -0.1198
     23 C16         4.6859    1.0613   -0.8642 C.3       1 <0>         0.1087
     24 H7          4.2726    1.7441   -1.6065 H         1 <0>         0.0554
     25 C17         4.5812   -0.3763   -1.3778 C.3       1 <0>        -0.1158
     26 C18         3.1257   -0.6882   -1.7265 C.3       1 <0>        -0.1059
     27 C19         2.2630   -0.6112   -0.4633 C.3       1 <0>        -0.0052
     28 C20         0.8072   -0.7865   -0.8207 C.3       1 <0>        -0.1253
     29 H8          0.5984   -0.2029   -1.6055 H         1 <0>         0.1025
     30 C21         0.3410   -2.2055   -1.0430 C.2       1 <0>         0.4145
     31 O2          1.0109   -3.1676   -1.3557 O.2       1 <0>        -0.4162
     32 C22        -1.1015   -2.1587   -0.7966 C.2       1 <0>        -0.2137
     33 C23        -2.0752   -3.0288   -1.1047 C.2       1 <0>        -0.0268
     34 C24        -1.8444   -4.2928   -1.8923 C.3       1 <0>        -0.1221
     35 C25         2.6866   -1.7231    0.4985 C.3       1 <0>        -0.1562
     36 O3          6.0575    1.3850   -0.6277 O.3       1 <0>        -0.5656
     37 C26        -4.2429   -0.1999   -0.4376 C.3       1 <0>        -0.2006
     38 C27        -7.3733   -1.5759   -2.9148 C.3       1 <0>        -0.0045
     39 H9         -8.4651   -3.8366   -3.9524 H         1 <0>         0.0697
     40 H10        -9.2390   -4.4288   -2.4629 H         1 <0>         0.0810
     41 H11        -9.7445   -2.8763   -3.1719 H         1 <0>         0.0725
     42 H12        -6.2716   -4.1554   -2.8197 H         1 <0>         0.0942
     43 H13        -7.0137   -4.6045   -1.2586 H         1 <0>         0.1061
     44 H14        -3.2120   -3.2009    1.4425 H         1 <0>         0.0858
     45 H15        -4.3041   -1.8276    1.2000 H         1 <0>         0.0787
     46 H16        -1.5591   -1.7958    1.9511 H         1 <0>         0.0791
     47 H17        -2.6511   -0.4206    1.7028 H         1 <0>         0.0807
     48 H18        -0.3619    1.6024   -0.4667 H         1 <0>         0.0771
     49 H19        -0.5138    1.5477    1.3124 H         1 <0>         0.0792
     50 H20         1.7641    2.4620    1.0308 H         1 <0>         0.1099
     51 H21         3.8973    2.2283    0.7685 H         1 <0>         0.0724
     52 H22         4.3562    0.5648    1.2096 H         1 <0>         0.0838
     53 H23         5.2004   -0.4902   -2.2675 H         1 <0>         0.0745
     54 H24         4.9251   -1.0640   -0.6052 H         1 <0>         0.0756
     55 H25         3.0611   -1.6908   -2.1491 H         1 <0>         0.0797
     56 H26         2.7647    0.0361   -2.4568 H         1 <0>         0.0638
     57 H27        -1.9538   -4.0829   -2.9563 H         1 <0>         0.0787
     58 H28        -0.8385   -4.6641   -1.6968 H         1 <0>         0.0873
     59 H29        -2.5740   -5.0454   -1.5935 H         1 <0>         0.0830
     60 H30         2.5431   -2.6918    0.0199 H         1 <0>         0.0747
     61 H31         3.7379   -1.5982    0.7579 H         1 <0>         0.0656
     62 H32         2.0806   -1.6715    1.4031 H         1 <0>         0.0535
     63 H33         6.1983    2.2824   -0.2961 H         1 <0>         0.3798
     64 H34        -3.3548    0.0879    0.1251 H         1 <0>         0.1174
     65 H35        -4.5990    0.6529   -1.0156 H         1 <0>         0.0681
     66 H36        -5.0223   -0.5216    0.2531 H         1 <0>         0.0729
     67 H37        -8.2041   -0.8755   -3.0002 H         1 <0>         0.1405
     68 H38        -7.0524   -1.8698   -3.9141 H         1 <0>         0.1324
     69 N1         -6.2507   -0.9143   -2.2273 N.4       1 <0>        -0.4959
     70 H39        -5.9506   -0.0950   -2.7685 H         1 <0>         0.4367
     71 H40        -6.5484   -0.6158   -1.2911 H         1 <0>         0.4303
@<TRIPOS>BOND
     1    1    2 1
     2    1   39 1
     3    1   40 1
     4    1   41 1
     5    2    3 1
     6    2   38 1
     7    2    4 1
     8    4    5 1
     9    4   42 1
    10    4   43 1
    11    5    6 1
    12    5   12 1
    13    5    7 1
    14    7    8 1
    15    7    9 1
    16    7   69 1
    17    9   10 1
    18    9   11 1
    19    9   37 1
    20   11   33 1
    21   11   12 1
    22   11   13 1
    23   13   14 1
    24   13   44 1
    25   13   45 1
    26   14   15 1
    27   14   46 1
    28   14   47 1
    29   15   16 1
    30   15   32 1
    31   15   17 1
    32   17   18 1
    33   17   28 1
    34   17   19 1
    35   19   20 1
    36   19   48 1
    37   19   49 1
    38   20   21 2
    39   20   50 1
    40   21   27 1
    41   21   22 1
    42   22   23 1
    43   22   51 1
    44   22   52 1
    45   23   24 1
    46   23   25 1
    47   23   36 1
    48   25   26 1
    49   25   53 1
    50   25   54 1
    51   26   27 1
    52   26   55 1
    53   26   56 1
    54   27   28 1
    55   27   35 1
    56   28   29 1
    57   28   30 1
    58   30   31 2
    59   30   32 1
    60   32   33 2
    61   33   34 1
    62   34   57 1
    63   34   58 1
    64   34   59 1
    65   35   60 1
    66   35   61 1
    67   35   62 1
    68   36   63 1
    69   37   64 1
    70   37   65 1
    71   37   66 1
    72   38   67 1
    73   38   68 1
    74   38   69 1
    75   69   70 1
    76   69   71 1
@<TRIPOS>MOLECULE
ZINC40899447
   41    43     0     0     0
SMALL
USER_CHARGES

@<TRIPOS>ATOM
      1 C1         -0.0873    1.7033    0.0392 C.3       1 <0>        -0.6476
      2 S1         -0.0429   -0.1100    0.0102 S.o2      1 <0>         2.4979
      3 O1          0.7927   -0.5959    1.0518 O.2       1 <0>        -0.9273
      4 O2         -1.3537   -0.6288   -0.1687 O.2       1 <0>        -0.9277
      5 C2          0.8091   -0.5183   -1.4771 C.ar      1 <0>        -0.6265
      6 C3          0.0990   -0.6883   -2.6532 C.ar      1 <0>        -0.0273
      7 C4          0.7586   -1.0075   -3.8213 C.ar      1 <0>        -0.0937
      8 C5          2.1467   -1.1594   -3.8168 C.ar      1 <0>        -0.0791
      9 C6          2.8578   -0.9866   -2.6267 C.ar      1 <0>        -0.0061
     10 C7          2.1843   -0.6617   -1.4651 C.ar      1 <0>        -0.0223
     11 Cl1         4.5837   -1.1735   -2.6089 Cl        1 <0>        -0.0115
     12 C8          2.8599   -1.5018   -5.0645 C.2       1 <0>         0.5500
     13 O3          4.0685   -1.6334   -5.0573 O.2       1 <0>        -0.4798
     14 N1          2.1708   -1.6683   -6.2107 N.am      1 <0>        -0.6651
     15 C9          2.8531   -1.9008   -7.4098 C.ar      1 <0>         0.1450
     16 C10         2.3654   -1.3745   -8.6002 C.ar      1 <0>        -0.1202
     17 C11         3.0362   -1.6012   -9.7865 C.ar      1 <0>        -0.0931
     18 C12         4.1958   -2.3530   -9.7964 C.ar      1 <0>        -0.0172
     19 C13         4.6922   -2.8848   -8.6064 C.ar      1 <0>        -0.0167
     20 C14         4.0188   -2.6513   -7.4097 C.ar      1 <0>        -0.0877
     21 C15         5.9363   -3.6923   -8.6144 C.ar      1 <0>         0.1617
     22 C16         5.9590   -4.9329   -7.9802 C.ar      1 <0>        -0.1514
     23 C17         7.1271   -5.6749   -7.9961 C.ar      1 <0>        -0.0743
     24 C18         8.2357   -5.1514   -8.6466 C.ar      1 <0>        -0.1678
     25 C19         8.1429   -3.9137   -9.2553 C.ar      1 <0>         0.1027
     26 N2          7.0167   -3.2301   -9.2300 N.ar      1 <0>        -0.4578
     27 Cl2         5.0343   -2.6358  -11.2899 Cl        1 <0>        -0.0482
     28 H1          0.9312    2.0917    0.0383 H         1 <0>         0.1344
     29 H2         -0.6160    2.0679   -0.8414 H         1 <0>         0.1342
     30 H3         -0.6036    2.0397    0.9383 H         1 <0>         0.1384
     31 H4         -0.9746   -0.5710   -2.6558 H         1 <0>         0.1588
     32 H5          0.2028   -1.1401   -4.7377 H         1 <0>         0.1467
     33 H6          2.7325   -0.5237   -0.5449 H         1 <0>         0.1622
     34 H7          1.2017   -1.6269   -6.2043 H         1 <0>         0.4132
     35 H8          1.4592   -0.7870   -8.5978 H         1 <0>         0.1392
     36 H9          2.6531   -1.1901  -10.7088 H         1 <0>         0.1436
     37 H10         4.4013   -3.0574   -6.4850 H         1 <0>         0.1515
     38 H11         5.0775   -5.3098   -7.4829 H         1 <0>         0.1349
     39 H12         7.1750   -6.6396   -7.5128 H         1 <0>         0.1378
     40 H13         9.1622   -5.7056   -8.6766 H         1 <0>         0.1372
     41 H14         9.0038   -3.5034   -9.7621 H         1 <0>         0.1591
@<TRIPOS>BOND
     1    1    2 1
     2    1   28 1
     3    1   29 1
     4    1   30 1
     5    2    3 2
     6    2    4 2
     7    2    5 1
     8    5   10 ar
     9    5    6 ar
    10    6    7 ar
    11    6   31 1
    12    7    8 ar
    13    7   32 1
    14    8    9 ar
    15    8   12 1
    16    9   10 ar
    17    9   11 1
    18   10   33 1
    19   12   13 2
    20   12   14 am
    21   14   15 1
    22   14   34 1
    23   15   20 ar
    24   15   16 ar
    25   16   17 ar
    26   16   35 1
    27   17   18 ar
    28   17   36 1
    29   18   19 ar
    30   18   27 1
    31   19   20 ar
    32   19   21 1
    33   20   37 1
    34   21   26 ar
    35   21   22 ar
    36   22   23 ar
    37   22   38 1
    38   23   24 ar
    39   23   39 1
    40   24   25 ar
    41   24   40 1
    42   25   26 ar
    43   25   41 1
@<TRIPOS>MOLECULE
ZINC42855864
   83    87     0     0     0
SMALL
USER_CHARGES

@<TRIPOS>ATOM
      1 C1          1.4914   -0.2343    1.5864 C.3       1 <0>        -0.1557
      2 C2          1.9054    1.1196    1.0062 C.3       1 <0>        -0.0498
      3 C3          0.6683    1.8467    0.4753 C.3       1 <0>        -0.1510
      4 C4          2.5628    1.9637    2.1000 C.3       1 <0>        -0.1472
      5 C5          2.8991    0.9024   -0.1367 C.3       1 <0>        -0.1390
      6 C6          2.2516    0.0710   -1.2141 C.2       1 <0>         0.5271
      7 O1          1.1399   -0.3831   -1.0438 O.2       1 <0>        -0.5229
      8 N1          2.9078   -0.1679   -2.3668 N.am      1 <0>        -0.6022
      9 C7          4.2923    0.2830   -2.5284 C.3       1 <0>         0.1458
     10 C8          5.2307   -0.8528   -2.2116 C.ar      1 <0>        -0.0809
     11 C9          5.6099   -1.0912   -0.9032 C.ar      1 <0>        -0.1438
     12 C10         6.4706   -2.1323   -0.6093 C.ar      1 <0>        -0.0719
     13 C11         6.9546   -2.9371   -1.6226 C.ar      1 <0>        -0.1972
     14 C12         6.5758   -2.7001   -2.9358 C.ar      1 <0>         0.1318
     15 C13         5.7070   -1.6583   -3.2275 C.ar      1 <0>        -0.1421
     16 O2          7.0505   -3.4904   -3.9343 O.3       1 <0>        -0.3170
     17 C14         7.9361   -4.5474   -3.5597 C.3       1 <0>         0.0247
     18 C15         2.2367   -0.8785   -3.4580 C.3       1 <0>         0.1418
     19 H1          2.8911   -0.9547   -4.3264 H         1 <0>         0.1310
     20 C16         1.7744   -2.2849   -2.9943 C.3       1 <0>        -0.1540
     21 C17         0.5843   -2.5536   -3.9488 C.3       1 <0>         0.0054
     22 H2          0.9445   -2.9158   -4.9118 H         1 <0>         0.1653
     23 N2         -0.0765   -1.2406   -4.1072 N.4       1 <0>        -0.3699
     24 C18         0.9131   -0.1788   -3.8321 C.3       1 <0>        -0.0270
     25 C19        -0.5767   -1.1014   -5.4814 C.3       1 <0>         0.0507
     26 C20        -1.3553    0.1829   -5.6050 C.ar      1 <0>        -0.1538
     27 C21        -2.7139    0.1932   -5.3494 C.ar      1 <0>        -0.0707
     28 C22        -3.4324    1.3690   -5.4609 C.ar      1 <0>        -0.0989
     29 C23        -2.7917    2.5406   -5.8299 C.ar      1 <0>         0.0729
     30 C24        -1.4231    2.5303   -6.0874 C.ar      1 <0>         0.0389
     31 C25        -0.7084    1.3494   -5.9681 C.ar      1 <0>        -0.0822
     32 O3         -1.0337    3.7934   -6.4281 O.3       1 <0>        -0.3016
     33 C26        -2.2460    4.4894   -6.7735 C.3       1 <0>         0.2114
     34 O4         -3.2598    3.8103   -6.0092 O.3       1 <0>        -0.2982
     35 C27        -0.3649   -3.5508   -3.3361 C.2       1 <0>         0.5141
     36 O5         -1.5116   -3.2321   -3.1024 O.2       1 <0>        -0.5243
     37 N3          0.0603   -4.7968   -3.0477 N.am      1 <0>        -0.5853
     38 C28         1.4482   -5.2021   -3.3174 C.3       1 <0>         0.0966
     39 C29         1.4270   -6.5098   -4.1159 C.3       1 <0>         0.0404
     40 N4          0.6176   -7.5044   -3.3993 N.3       1 <0>        -0.6894
     41 C30        -0.7819   -7.0720   -3.2876 C.3       1 <0>         0.0413
     42 C31        -0.8496   -5.7855   -2.4495 C.3       1 <0>         0.1131
     43 H3          1.0231   -0.8356    0.8072 H         1 <0>         0.0822
     44 H4          2.3727   -0.7522    1.9647 H         1 <0>         0.0470
     45 H5          0.7835   -0.0795    2.4006 H         1 <0>         0.0544
     46 H6         -0.0396    2.0015    1.2895 H         1 <0>         0.0573
     47 H7          0.9632    2.8112    0.0619 H         1 <0>         0.0483
     48 H8          0.2000    1.2454   -0.3040 H         1 <0>         0.0704
     49 H9          3.4441    1.4457    2.4783 H         1 <0>         0.0572
     50 H10         2.8577    2.9282    1.6867 H         1 <0>         0.0570
     51 H11         1.8549    2.1184    2.9143 H         1 <0>         0.0628
     52 H12         3.1940    1.8669   -0.5500 H         1 <0>         0.0995
     53 H13         3.7804    0.3844    0.2416 H         1 <0>         0.1022
     54 H14         4.4505    0.6090   -3.5564 H         1 <0>         0.0981
     55 H15         4.4854    1.1139   -1.8499 H         1 <0>         0.1069
     56 H16         5.2332   -0.4627   -0.1098 H         1 <0>         0.1241
     57 H17         6.7652   -2.3164    0.4133 H         1 <0>         0.1298
     58 H18         7.6276   -3.7499   -1.3926 H         1 <0>         0.1321
     59 H19         5.4069   -1.4747   -4.2486 H         1 <0>         0.1288
     60 H20         7.4270   -5.2208   -2.8702 H         1 <0>         0.0580
     61 H21         8.2396   -5.0995   -4.4492 H         1 <0>         0.1052
     62 H22         8.8173   -4.1282   -3.0740 H         1 <0>         0.0596
     63 H23         2.5641   -3.0224   -3.1377 H         1 <0>         0.1264
     64 H24         1.4449   -2.2648   -1.9555 H         1 <0>         0.1278
     65 H25         0.5723    0.4387   -3.0010 H         1 <0>         0.1434
     66 H26         1.0573    0.4372   -4.7198 H         1 <0>         0.1392
     67 H27         0.2646   -1.0844   -6.1743 H         1 <0>         0.1391
     68 H28        -1.2260   -1.9442   -5.7189 H         1 <0>         0.1402
     69 H29        -3.2152   -0.7194   -5.0623 H         1 <0>         0.1495
     70 H30        -4.4936    1.3741   -5.2606 H         1 <0>         0.1503
     71 H31         0.3539    1.3393   -6.1628 H         1 <0>         0.1422
     72 H32        -2.1828    5.5373   -6.4803 H         1 <0>         0.1435
     73 H33        -2.4475    4.4009   -7.8411 H         1 <0>         0.0965
     74 H34         1.9499   -4.4272   -3.8970 H         1 <0>         0.0883
     75 H35         1.9741   -5.3568   -2.3753 H         1 <0>         0.0934
     76 H36         0.9935   -6.3285   -5.0994 H         1 <0>         0.0397
     77 H37         2.4448   -6.8830   -4.2298 H         1 <0>         0.0970
     78 H38         0.6824   -8.4093   -3.8408 H         1 <0>         0.3579
     79 H39        -1.1846   -6.8828   -4.2826 H         1 <0>         0.0404
     80 H40        -1.3660   -7.8529   -2.8007 H         1 <0>         0.0983
     81 H41        -0.5403   -5.9952   -1.4255 H         1 <0>         0.0893
     82 H42        -1.8678   -5.3965   -2.4550 H         1 <0>         0.1034
     83 H43        -0.8455   -1.1670   -3.4582 H         1 <0>         0.4369
@<TRIPOS>BOND
     1    1    2 1
     2    1   43 1
     3    1   44 1
     4    1   45 1
     5    2    3 1
     6    2    4 1
     7    2    5 1
     8    3   46 1
     9    3   47 1
    10    3   48 1
    11    4   49 1
    12    4   50 1
    13    4   51 1
    14    5    6 1
    15    5   52 1
    16    5   53 1
    17    6    7 2
    18    6    8 am
    19    8    9 1
    20    8   18 1
    21    9   10 1
    22    9   54 1
    23    9   55 1
    24   10   15 ar
    25   10   11 ar
    26   11   12 ar
    27   11   56 1
    28   12   13 ar
    29   12   57 1
    30   13   14 ar
    31   13   58 1
    32   14   15 ar
    33   14   16 1
    34   15   59 1
    35   16   17 1
    36   17   60 1
    37   17   61 1
    38   17   62 1
    39   18   19 1
    40   18   24 1
    41   18   20 1
    42   20   21 1
    43   20   63 1
    44   20   64 1
    45   21   22 1
    46   21   23 1
    47   21   35 1
    48   23   24 1
    49   23   25 1
    50   23   83 1
    51   24   65 1
    52   24   66 1
    53   25   26 1
    54   25   67 1
    55   25   68 1
    56   26   31 ar
    57   26   27 ar
    58   27   28 ar
    59   27   69 1
    60   28   29 ar
    61   28   70 1
    62   29   34 1
    63   29   30 ar
    64   30   31 ar
    65   30   32 1
    66   31   71 1
    67   32   33 1
    68   33   34 1
    69   33   72 1
    70   33   73 1
    71   35   36 2
    72   35   37 am
    73   37   42 1
    74   37   38 1
    75   38   39 1
    76   38   74 1
    77   38   75 1
    78   39   40 1
    79   39   76 1
    80   39   77 1
    81   40   41 1
    82   40   78 1
    83   41   42 1
    84   41   79 1
    85   41   80 1
    86   42   81 1
    87   42   82 1
