@<TRIPOS>MOLECULE
ZINC13829395
   31    32     0     0     0
SMALL
USER_CHARGES

@<TRIPOS>ATOM
      1 C1          0.1027    1.2616    0.0565 C.3       1 <0>        -0.1178
      2 C2          0.1375   -0.2432    0.1300 C.ar      1 <0>        -0.0643
      3 C3          0.1782   -0.9907   -1.0289 C.ar      1 <0>        -0.0914
      4 C4          0.2107   -2.3720   -0.9645 C.ar      1 <0>        -0.1347
      5 C5          0.2022   -3.0148    0.2635 C.ar      1 <0>         0.0942
      6 C6          0.1611   -2.2776    1.4311 C.ar      1 <0>        -0.1215
      7 C7          0.1345   -0.8829    1.3711 C.ar      1 <0>        -0.0030
      8 C8          0.0971   -0.0876    2.6152 C.2       1 <0>         0.0527
      9 C9         -0.7588   -0.2813    3.6608 C.2       1 <0>        -0.1964
     10 C10        -0.4521    0.6849    4.6256 C.2       1 <0>        -0.1288
     11 C11         0.5799    1.4298    4.1286 C.2       1 <0>        -0.0590
     12 O1          0.9042    0.9457    2.9120 O.3       1 <0>        -0.1335
     13 C12         1.2290    2.5608    4.8057 C.2       1 <0>         0.5969
     14 O2          0.8512    2.9073    5.9124 O.2       1 <0>        -0.5193
     15 N1          2.2384    3.2132    4.2059 N.2       1 <0>        -0.6909
     16 C13         3.3874    3.3797    4.8397 C.2       1 <0>         0.7051
     17 N2          3.5903    2.7867    6.0520 N.pl3     1 <0>        -0.8636
     18 N3          4.3701    4.1446    4.2812 N.pl3     1 <0>        -0.8237
     19 F1          0.2336   -4.3643    0.3185 F         1 <0>        -0.1349
     20 H1          1.1215    1.6490    0.0539 H         1 <0>         0.0807
     21 H2         -0.4052    1.5691   -0.8576 H         1 <0>         0.0735
     22 H3         -0.4335    1.6553    0.9201 H         1 <0>         0.0695
     23 H4          0.1843   -0.4961   -1.9889 H         1 <0>         0.1409
     24 H5          0.2424   -2.9521   -1.8750 H         1 <0>         0.1414
     25 H6          0.1538   -2.7787    2.3878 H         1 <0>         0.1428
     26 H7         -1.5276   -1.0367    3.7301 H         1 <0>         0.1591
     27 H8         -0.9384    0.8167    5.5808 H         1 <0>         0.1624
     28 H9          2.9241    2.1812    6.4133 H         1 <0>         0.4202
     29 H10         4.4006    2.9707    6.5524 H         1 <0>         0.4041
     30 H11         4.2259    4.5661    3.4196 H         1 <0>         0.4269
     31 H12         5.2127    4.2668    4.7459 H         1 <0>         0.4124
@<TRIPOS>BOND
     1    1    2 1
     2    1   20 1
     3    1   21 1
     4    1   22 1
     5    2    7 ar
     6    2    3 ar
     7    3    4 ar
     8    3   23 1
     9    4    5 ar
    10    4   24 1
    11    5    6 ar
    12    5   19 1
    13    6    7 ar
    14    6   25 1
    15    7    8 1
    16    8   12 1
    17    8    9 2
    18    9   10 1
    19    9   26 1
    20   10   11 2
    21   10   27 1
    22   11   12 1
    23   11   13 1
    24   13   14 2
    25   13   15 1
    26   15   16 2
    27   16   17 1
    28   16   18 1
    29   17   28 1
    30   17   29 1
    31   18   30 1
    32   18   31 1
@<TRIPOS>MOLECULE
ZINC13474734
   36    36     0     0     0
SMALL
USER_CHARGES

@<TRIPOS>ATOM
      1 C1         -0.0071    1.2770   -0.1436 C.3       1 <0>        -0.1533
      2 C2         -0.0025   -0.2508   -0.0615 C.3       1 <0>        -0.0937
      3 C3          0.7033   -0.8255   -1.2913 C.3       1 <0>        -0.1395
      4 C4          0.7260   -0.6847    1.1844 C.ar      1 <0>         0.0435
      5 C5          2.0509   -0.3298    1.3667 C.ar      1 <0>        -0.1498
      6 C6          2.7233   -0.7244    2.5048 C.ar      1 <0>        -0.0042
      7 C7          2.0646   -1.4823    3.4732 C.ar      1 <0>        -0.1585
      8 C8          0.7290   -1.8365    3.2839 C.ar      1 <0>         0.0338
      9 C9          0.0657   -1.4313    2.1436 C.ar      1 <0>        -0.6717
     10 S1         -1.6237   -1.8717    1.9058 S.o2      1 <0>         2.4956
     11 O1         -1.6692   -2.4472    0.6074 O.2       1 <0>        -0.9300
     12 O2         -1.9626   -2.6409    3.0515 O.2       1 <0>        -0.9356
     13 C10        -2.5229   -0.2963    1.9227 C.3       1 <0>        -0.6583
     14 C11         2.7809   -1.9096    4.6972 C.2       1 <0>         0.5543
     15 O3          2.2034   -2.5714    5.5411 O.2       1 <0>        -0.5328
     16 N1          4.0638   -1.5683    4.8760 N.2       1 <0>        -0.6989
     17 C12         4.9653   -2.5000    5.1475 C.2       1 <0>         0.7025
     18 N2          4.6124   -3.8169    5.1261 N.pl3     1 <0>        -0.8628
     19 N3          6.2462   -2.1421    5.4483 N.pl3     1 <0>        -0.8248
     20 H1          1.0194    1.6421   -0.1771 H         1 <0>         0.0669
     21 H2         -0.5340    1.5909   -1.0447 H         1 <0>         0.0707
     22 H3         -0.5099    1.6865    0.7326 H         1 <0>         0.0604
     23 H4         -1.0290   -0.6159   -0.0279 H         1 <0>         0.0856
     24 H5          1.7298   -0.4604   -1.3248 H         1 <0>         0.0597
     25 H6          0.7065   -1.9139   -1.2328 H         1 <0>         0.0665
     26 H7          0.1764   -0.5116   -2.1924 H         1 <0>         0.0676
     27 H8          2.5598    0.2570    0.6163 H         1 <0>         0.1377
     28 H9          3.7577   -0.4473    2.6456 H         1 <0>         0.1442
     29 H10         0.2137   -2.4232    4.0300 H         1 <0>         0.1558
     30 H11        -2.1551    0.3406    1.1182 H         1 <0>         0.1341
     31 H12        -3.5871   -0.4838    1.7801 H         1 <0>         0.1372
     32 H13        -2.3667    0.2010    2.8800 H         1 <0>         0.1356
     33 H14         3.7235   -4.0762    4.8370 H         1 <0>         0.4209
     34 H15         5.2503   -4.4945    5.3998 H         1 <0>         0.4035
     35 H16         6.4972   -1.2053    5.4636 H         1 <0>         0.4262
     36 H17         6.9064   -2.8244    5.6471 H         1 <0>         0.4119
@<TRIPOS>BOND
     1    1    2 1
     2    1   20 1
     3    1   21 1
     4    1   22 1
     5    2    3 1
     6    2    4 1
     7    2   23 1
     8    3   24 1
     9    3   25 1
    10    3   26 1
    11    4    9 ar
    12    4    5 ar
    13    5    6 ar
    14    5   27 1
    15    6    7 ar
    16    6   28 1
    17    7    8 ar
    18    7   14 1
    19    8    9 ar
    20    8   29 1
    21    9   10 1
    22   10   11 2
    23   10   12 2
    24   10   13 1
    25   13   30 1
    26   13   31 1
    27   13   32 1
    28   14   15 2
    29   14   16 1
    30   16   17 2
    31   17   18 1
    32   17   19 1
    33   18   33 1
    34   18   34 1
    35   19   35 1
    36   19   36 1
@<TRIPOS>MOLECULE
ZINC03871092
   38    38     0     0     0
SMALL
USER_CHARGES

@<TRIPOS>ATOM
      1 C1         -3.0841    0.6293    1.7834 C.3       1 <0>        -0.1757
      2 C2         -1.8088    0.7053    0.9414 C.3       1 <0>         0.1415
      3 N1         -1.5929   -0.5763    0.2653 N.pl3     1 <0>        -0.6508
      4 C3         -2.2297   -0.8416   -0.9354 C.ar      1 <0>         0.4451
      5 C4         -1.5755   -0.5822   -2.1456 C.ar      1 <0>         0.0472
      6 N2         -2.1757   -0.8328   -3.2890 N.ar      1 <0>        -0.3320
      7 C5         -3.4098   -1.3350   -3.2994 C.ar      1 <0>        -0.0501
      8 C6         -4.0684   -1.5961   -2.0883 C.ar      1 <0>         0.4230
      9 N3         -3.4565   -1.3462   -0.9369 N.ar      1 <0>        -0.5098
     10 N4         -5.3504   -2.1172   -2.0940 N.pl3     1 <0>        -0.8125
     11 C7         -4.0835   -1.6157   -4.5833 C.2       1 <0>         0.5935
     12 O1         -5.2481   -1.9744   -4.5947 O.2       1 <0>        -0.5412
     13 N5         -3.4136   -1.4760   -5.7366 N.2       1 <0>        -0.6714
     14 C8         -3.8643   -0.6503   -6.6680 C.2       1 <0>         0.7042
     15 N6         -4.9457    0.1409   -6.4126 N.pl3     1 <0>        -0.8658
     16 N7         -3.2474   -0.5907   -7.8831 N.pl3     1 <0>        -0.8241
     17 Cl1         0.0323    0.0725   -2.1374 Cl        1 <0>        -0.0122
     18 C9         -0.7032   -1.5771    0.8594 C.3       1 <0>         0.1703
     19 C10         0.7032   -0.9910    0.9985 C.3       1 <0>        -0.1673
     20 C11        -1.2300   -1.9720    2.2406 C.3       1 <0>        -0.1640
     21 H1         -3.2447    1.5828    2.2864 H         1 <0>         0.0570
     22 H2         -3.9341    0.4120    1.1366 H         1 <0>         0.0567
     23 H3         -2.9819   -0.1611    2.5270 H         1 <0>         0.0615
     24 H4         -1.9110    1.4957    0.1978 H         1 <0>         0.0607
     25 H5         -0.9588    0.9226    1.5882 H         1 <0>         0.0815
     26 H6         -5.8256   -2.2272   -2.9324 H         1 <0>         0.4270
     27 H7         -5.7739   -2.3725   -1.2594 H         1 <0>         0.4032
     28 H8         -5.3383    0.1543   -5.5256 H         1 <0>         0.4171
     29 H9         -5.3222    0.6902   -7.1179 H         1 <0>         0.4036
     30 H10        -2.4784   -1.1533   -8.0647 H         1 <0>         0.4271
     31 H11        -3.5776    0.0144   -8.5655 H         1 <0>         0.4116
     32 H12        -0.6680   -2.4581    0.2185 H         1 <0>         0.0743
     33 H13         1.0785   -0.7097    0.0145 H         1 <0>         0.0642
     34 H14         0.6679   -0.1100    1.6394 H         1 <0>         0.0596
     35 H15         1.3651   -1.7357    1.4405 H         1 <0>         0.0644
     36 H16        -2.2320   -2.3896    2.1415 H         1 <0>         0.0591
     37 H17        -0.5681   -2.7167    2.6826 H         1 <0>         0.0621
     38 H18        -1.2652   -1.0911    2.8815 H         1 <0>         0.0610
@<TRIPOS>BOND
     1    1    2 1
     2    1   21 1
     3    1   22 1
     4    1   23 1
     5    2    3 1
     6    2   24 1
     7    2   25 1
     8    3    4 1
     9    3   18 1
    10    4    9 ar
    11    4    5 ar
    12    5    6 ar
    13    5   17 1
    14    6    7 ar
    15    7    8 ar
    16    7   11 1
    17    8    9 ar
    18    8   10 1
    19   10   26 1
    20   10   27 1
    21   11   12 2
    22   11   13 1
    23   13   14 2
    24   14   15 1
    25   14   16 1
    26   15   28 1
    27   15   29 1
    28   16   30 1
    29   16   31 1
    30   18   19 1
    31   18   20 1
    32   18   32 1
    33   19   33 1
    34   19   34 1
    35   19   35 1
    36   20   36 1
    37   20   37 1
    38   20   38 1
@<TRIPOS>MOLECULE
ZINC13555902
   38    39     0     0     0
SMALL
USER_CHARGES

@<TRIPOS>ATOM
      1 C1          0.5505    1.4107   -0.5444 C.3       1 <0>        -0.1259
      2 C2          0.4101   -0.0481   -0.1934 C.ar      1 <0>         0.0379
      3 C3          0.4631   -1.0039   -1.1842 C.ar      1 <0>        -0.1472
      4 C4          0.3332   -2.3498   -0.8614 C.ar      1 <0>         0.2442
      5 C5          0.1494   -2.7358    0.4618 C.ar      1 <0>        -0.6841
      6 C6          0.0960   -1.7852    1.4570 C.ar      1 <0>         0.0546
      7 C7          0.2319   -0.4328    1.1366 C.ar      1 <0>        -0.1536
      8 C8          0.1811    0.5905    2.2038 C.2       1 <0>         0.5603
      9 O1          0.4375    1.7532    1.9455 O.2       1 <0>        -0.5352
     10 N1         -0.1469    0.2385    3.4546 N.2       1 <0>        -0.7007
     11 C9          0.6462    0.5643    4.4637 C.2       1 <0>         0.7039
     12 N2          1.7626    1.3146    4.2387 N.pl3     1 <0>        -0.8651
     13 N3          0.3467    0.1496    5.7279 N.pl3     1 <0>        -0.8225
     14 S1         -0.0159   -4.4429    0.8657 S.o2      1 <0>         2.4940
     15 O2          1.1207   -5.0652    0.2825 O.2       1 <0>        -0.9246
     16 O3         -0.2118   -4.4652    2.2730 O.2       1 <0>        -0.9346
     17 C10        -1.5264   -4.9788    0.0161 C.3       1 <0>        -0.6471
     18 N4          0.3869   -3.3175   -1.8696 N.pl3     1 <0>        -0.4473
     19 C11        -0.4879   -3.4307   -2.9129 C.2       1 <0>        -0.0310
     20 C12        -0.1081   -4.4805   -3.6688 C.2       1 <0>        -0.1773
     21 C13         1.0421   -5.0370   -3.0732 C.2       1 <0>        -0.2024
     22 C14         1.3265   -4.3035   -1.9783 C.2       1 <0>         0.0248
     23 H1          1.5732    1.7342   -0.3507 H         1 <0>         0.0866
     24 H2          0.3175    1.5547   -1.5994 H         1 <0>         0.0661
     25 H3         -0.1377    1.9985    0.0632 H         1 <0>         0.1004
     26 H4          0.6054   -0.7072   -2.2129 H         1 <0>         0.1457
     27 H5         -0.0472   -2.0856    2.4844 H         1 <0>         0.1652
     28 H6          1.9406    1.6656    3.3521 H         1 <0>         0.4244
     29 H7          2.3787    1.4973    4.9653 H         1 <0>         0.4021
     30 H8         -0.4474   -0.3840    5.8879 H         1 <0>         0.4277
     31 H9          0.9277    0.3883    6.4670 H         1 <0>         0.4127
     32 H10        -1.4126   -4.8276   -1.0574 H         1 <0>         0.1349
     33 H11        -1.7012   -6.0356    0.2177 H         1 <0>         0.1373
     34 H12        -2.3731   -4.3951    0.3775 H         1 <0>         0.1326
     35 H13        -1.3372   -2.7902   -3.0996 H         1 <0>         0.1660
     36 H14        -0.5959   -4.8311   -4.5662 H         1 <0>         0.1430
     37 H15         1.5967   -5.8918   -3.4311 H         1 <0>         0.1440
     38 H16         2.1527   -4.4683   -1.3026 H         1 <0>         0.1902
@<TRIPOS>BOND
     1    1    2 1
     2    1   23 1
     3    1   24 1
     4    1   25 1
     5    2    7 ar
     6    2    3 ar
     7    3    4 ar
     8    3   26 1
     9    4    5 ar
    10    4   18 1
    11    5    6 ar
    12    5   14 1
    13    6    7 ar
    14    6   27 1
    15    7    8 1
    16    8    9 2
    17    8   10 1
    18   10   11 2
    19   11   12 1
    20   11   13 1
    21   12   28 1
    22   12   29 1
    23   13   30 1
    24   13   31 1
    25   14   15 2
    26   14   16 2
    27   14   17 1
    28   17   32 1
    29   17   33 1
    30   17   34 1
    31   18   22 1
    32   18   19 1
    33   19   20 2
    34   19   35 1
    35   20   21 1
    36   20   36 1
    37   21   22 2
    38   21   37 1
    39   22   38 1
