@<TRIPOS>MOLECULE
ZINC01540245
   78    79     0     0     0
SMALL
USER_CHARGES
N-(2,6-diisopropylphenoxy)sulfonyl-2-(2,4,6-triisopropylphenyl)-acetamide
@<TRIPOS>ATOM
      1 C1          4.5265    6.6415    0.7170 C.3       1 <0>        -0.1600
      2 C2          3.8501    7.4195   -0.4136 C.3       1 <0>        -0.0700
      3 C3          2.9184    8.4772    0.1815 C.3       1 <0>        -0.1477
      4 C4          4.9006    8.0934   -1.2582 C.ar      1 <0>        -0.0662
      5 C5          5.8523    8.8998   -0.6646 C.ar      1 <0>        -0.1072
      6 C6          6.8131    9.5227   -1.4396 C.ar      1 <0>        -0.0888
      7 C7          6.8271    9.3364   -2.8095 C.ar      1 <0>        -0.1050
      8 C8          5.8807    8.5267   -3.4074 C.ar      1 <0>        -0.0384
      9 C9          4.9159    7.9003   -2.6319 C.ar      1 <0>         0.0532
     10 O1          3.9839    7.1033   -3.2176 O.3       1 <0>        -0.6583
     11 S1          4.4592    5.6803   -3.4740 S.o2      1 <0>         2.7417
     12 O2          5.8459    5.7630   -3.7730 O.2       1 <0>        -0.9519
     13 O3          3.5213    5.0933   -4.3656 O.2       1 <0>        -0.9144
     14 N1          4.3319    4.8563   -2.0432 N.am      1 <0>        -1.0715
     15 C10         3.1207    4.4781   -1.5889 C.2       1 <0>         0.5300
     16 O4          2.1329    4.6655   -2.2672 O.2       1 <0>        -0.4564
     17 C11         2.9937    3.8223   -0.2380 C.3       1 <0>        -0.1162
     18 C12         1.5859    3.3166   -0.0554 C.ar      1 <0>        -0.0811
     19 C13         1.2696    2.0146   -0.3954 C.ar      1 <0>        -0.0533
     20 C14        -0.0215    1.5504   -0.2270 C.ar      1 <0>        -0.1152
     21 C15        -0.9978    2.3900    0.2758 C.ar      1 <0>        -0.0627
     22 C16        -0.6805    3.6908    0.6199 C.ar      1 <0>        -0.1120
     23 C17         0.6108    4.1547    0.4524 C.ar      1 <0>        -0.0483
     24 C18         0.9558    5.5738    0.8239 C.3       1 <0>        -0.0663
     25 C19         0.0106    6.5347    0.0999 C.3       1 <0>        -0.1484
     26 C20         0.8080    5.7555    2.3359 C.3       1 <0>        -0.1455
     27 C21        -2.4068    1.8859    0.4536 C.3       1 <0>        -0.0576
     28 C22        -2.8036    1.9899    1.9275 C.3       1 <0>        -0.1434
     29 C23        -3.3613    2.7309   -0.3924 C.3       1 <0>        -0.1448
     30 C24         2.3326    1.1010   -0.9490 C.3       1 <0>        -0.0645
     31 C25         2.5953   -0.0350    0.0417 C.3       1 <0>        -0.1434
     32 C26         1.8593    0.5165   -2.2814 C.3       1 <0>        -0.1473
     33 C27         5.8962    8.3245   -4.9006 C.3       1 <0>        -0.0597
     34 C28         5.7227    9.6743   -5.5999 C.3       1 <0>        -0.1462
     35 C29         7.2303    7.7021   -5.3172 C.3       1 <0>        -0.1516
     36 H1          5.0172    7.3395    1.3954 H         1 <0>         0.0729
     37 H2          3.7768    6.0697    1.2638 H         1 <0>         0.0692
     38 H3          5.2675    5.9612    0.2972 H         1 <0>         0.0588
     39 H4          3.2722    6.7328   -1.0320 H         1 <0>         0.0713
     40 H5          2.5015    9.0866   -0.6203 H         1 <0>         0.0611
     41 H6          2.1097    7.9859    0.7226 H         1 <0>         0.0705
     42 H7          3.4803    9.1125    0.8662 H         1 <0>         0.0634
     43 H8          5.8435    9.0469    0.4053 H         1 <0>         0.1389
     44 H9          7.5538   10.1560   -0.9741 H         1 <0>         0.1369
     45 H10         7.5782    9.8245   -3.4128 H         1 <0>         0.1392
     46 H11         5.1290    4.6459   -1.5321 H         1 <0>         0.4340
     47 H12         3.2227    4.5489    0.5416 H         1 <0>         0.1196
     48 H13         3.6911    2.9872   -0.1726 H         1 <0>         0.1146
     49 H14        -0.2686    0.5331   -0.4926 H         1 <0>         0.1209
     50 H15        -1.4422    4.3454    1.0169 H         1 <0>         0.1212
     51 H16         1.9841    5.7863    0.5312 H         1 <0>         0.0765
     52 H17         0.1760    6.4658   -0.9753 H         1 <0>         0.0611
     53 H18        -1.0218    6.2683    0.3264 H         1 <0>         0.0584
     54 H19         0.2041    7.5544    0.4327 H         1 <0>         0.0592
     55 H20         1.4814    5.0710    2.8516 H         1 <0>         0.0562
     56 H21         1.0575    6.7820    2.6046 H         1 <0>         0.0593
     57 H22        -0.2203    5.5431    2.6285 H         1 <0>         0.0593
     58 H23        -2.4632    0.8451    0.1347 H         1 <0>         0.0767
     59 H24        -3.8227    1.6253    2.0561 H         1 <0>         0.0580
     60 H25        -2.1235    1.3879    2.5302 H         1 <0>         0.0556
     61 H26        -2.7472    3.0307    2.2464 H         1 <0>         0.0562
     62 H27        -3.0786    2.6568   -1.4425 H         1 <0>         0.0566
     63 H28        -4.3804    2.3662   -0.2639 H         1 <0>         0.0581
     64 H29        -3.3049    3.7717   -0.0736 H         1 <0>         0.0563
     65 H30         3.2515    1.6659   -1.1059 H         1 <0>         0.0742
     66 H31         1.6764   -0.5999    0.1987 H         1 <0>         0.0587
     67 H32         3.3641   -0.6958   -0.3587 H         1 <0>         0.0593
     68 H33         2.9324    0.3814    0.9909 H         1 <0>         0.0562
     69 H34         1.6722    1.3258   -2.9871 H         1 <0>         0.0593
     70 H35         2.6282   -0.1443   -2.6818 H         1 <0>         0.0588
     71 H36         0.9405   -0.0484   -2.1244 H         1 <0>         0.0590
     72 H37         5.0805    7.6601   -5.1858 H         1 <0>         0.0596
     73 H38         6.5384   10.3387   -5.3147 H         1 <0>         0.0630
     74 H39         5.7339    9.5281   -6.6800 H         1 <0>         0.0658
     75 H40         4.7723   10.1178   -5.3031 H         1 <0>         0.0582
     76 H41         7.3539    6.7405   -4.8191 H         1 <0>         0.0888
     77 H42         7.2415    7.5558   -6.3973 H         1 <0>         0.0595
     78 H43         8.0460    8.3665   -5.0321 H         1 <0>         0.0576
@<TRIPOS>BOND
     1    1    2 1
     2    1   36 1
     3    1   37 1
     4    1   38 1
     5    2    3 1
     6    2    4 1
     7    2   39 1
     8    3   40 1
     9    3   41 1
    10    3   42 1
    11    4    9 ar
    12    4    5 ar
    13    5    6 ar
    14    5   43 1
    15    6    7 ar
    16    6   44 1
    17    7    8 ar
    18    7   45 1
    19    8    9 ar
    20    8   33 1
    21    9   10 1
    22   10   11 1
    23   11   12 2
    24   11   13 2
    25   11   14 1
    26   14   15 am
    27   14   46 1
    28   15   16 2
    29   15   17 1
    30   17   18 1
    31   17   47 1
    32   17   48 1
    33   18   23 ar
    34   18   19 ar
    35   19   20 ar
    36   19   30 1
    37   20   21 ar
    38   20   49 1
    39   21   22 ar
    40   21   27 1
    41   22   23 ar
    42   22   50 1
    43   23   24 1
    44   24   25 1
    45   24   26 1
    46   24   51 1
    47   25   52 1
    48   25   53 1
    49   25   54 1
    50   26   55 1
    51   26   56 1
    52   26   57 1
    53   27   28 1
    54   27   29 1
    55   27   58 1
    56   28   59 1
    57   28   60 1
    58   28   61 1
    59   29   62 1
    60   29   63 1
    61   29   64 1
    62   30   31 1
    63   30   32 1
    64   30   65 1
    65   31   66 1
    66   31   67 1
    67   31   68 1
    68   32   69 1
    69   32   70 1
    70   32   71 1
    71   33   34 1
    72   33   35 1
    73   33   72 1
    74   34   73 1
    75   34   74 1
    76   34   75 1
    77   35   76 1
    78   35   77 1
    79   35   78 1
@<TRIPOS>MOLECULE
ZINC00398151
   49    50     0     0     0
SMALL
USER_CHARGES
3-benzyl-1-(2,6-diisopropylphenyl)-urea
@<TRIPOS>ATOM
      1 C1          2.5849   -0.3656    3.6860 C.3       1 <0>        -0.1343
      2 C2          1.0567   -0.4388    3.6709 C.3       1 <0>        -0.0550
      3 C3          0.6167   -1.9037    3.6343 C.3       1 <0>        -0.1444
      4 C4          0.5099    0.2191    4.9115 C.ar      1 <0>        -0.0588
      5 C5          0.9834   -0.1496    6.1555 C.ar      1 <0>        -0.1092
      6 C6          0.4781    0.4496    7.2947 C.ar      1 <0>        -0.1198
      7 C7         -0.4986    1.4231    7.1922 C.ar      1 <0>        -0.1088
      8 C8         -0.9725    1.8000    5.9509 C.ar      1 <0>        -0.0859
      9 C9         -0.4671    1.2002    4.8049 C.ar      1 <0>         0.1601
     10 N1         -0.9455    1.5794    3.5457 N.am      1 <0>        -0.6904
     11 C10        -0.0816    1.9544    2.5815 C.2       1 <0>         0.7037
     12 O1          1.1080    2.0211    2.8235 O.2       1 <0>        -0.5631
     13 N2         -0.5365    2.2553    1.3490 N.am      1 <0>        -0.7404
     14 C11         0.4025    2.6629    0.3010 C.3       1 <0>         0.1818
     15 C12        -0.3550    2.9408   -0.9718 C.ar      1 <0>        -0.1122
     16 C13        -0.5667    1.9255   -1.8858 C.ar      1 <0>        -0.0992
     17 C14        -1.2657    2.1793   -3.0511 C.ar      1 <0>        -0.1220
     18 C15        -1.7444    3.4506   -3.3070 C.ar      1 <0>        -0.1102
     19 C16        -1.5277    4.4672   -2.3957 C.ar      1 <0>        -0.1219
     20 C17        -0.8333    4.2122   -1.2280 C.ar      1 <0>        -0.0994
     21 C18        -2.0373    2.8606    5.8401 C.3       1 <0>        -0.0542
     22 C19        -3.2901    2.4060    6.5915 C.3       1 <0>        -0.1449
     23 C20        -1.5223    4.1659    6.4500 C.3       1 <0>        -0.1425
     24 H1          2.8984    0.6780    3.7120 H         1 <0>         0.0665
     25 H2          2.9646   -0.8812    4.5681 H         1 <0>         0.0482
     26 H3          2.9804   -0.8415    2.7887 H         1 <0>         0.0498
     27 H4          0.6770    0.0767    2.7888 H         1 <0>         0.0835
     28 H5         -0.4720   -1.9559    3.6235 H         1 <0>         0.0503
     29 H6          1.0121   -2.3796    2.7370 H         1 <0>         0.0554
     30 H7          0.9964   -2.4193    4.5164 H         1 <0>         0.0550
     31 H8          1.7462   -0.9096    6.2388 H         1 <0>         0.1237
     32 H9          0.8468    0.1564    8.2665 H         1 <0>         0.1229
     33 H10        -0.8915    1.8890    8.0838 H         1 <0>         0.1237
     34 H11        -1.8988    1.5725    3.3668 H         1 <0>         0.4032
     35 H12        -1.4856    2.2021    1.1559 H         1 <0>         0.3976
     36 H13         1.1230    1.8635    0.1278 H         1 <0>         0.0767
     37 H14         0.9285    3.5644    0.6149 H         1 <0>         0.0765
     38 H15        -0.1892    0.9332   -1.6878 H         1 <0>         0.1242
     39 H16        -1.4346    1.3852   -3.7633 H         1 <0>         0.1248
     40 H17        -2.2873    3.6498   -4.2192 H         1 <0>         0.1240
     41 H18        -1.9014    5.4605   -2.5958 H         1 <0>         0.1248
     42 H19        -0.6640    5.0064   -0.5159 H         1 <0>         0.1240
     43 H20        -2.2818    3.0218    4.7902 H         1 <0>         0.0728
     44 H21        -3.0456    2.2448    7.6415 H         1 <0>         0.0589
     45 H22        -4.0603    3.1732    6.5115 H         1 <0>         0.0585
     46 H23        -3.6570    1.4761    6.1570 H         1 <0>         0.0549
     47 H24        -0.6298    4.4898    5.9147 H         1 <0>         0.0552
     48 H25        -2.2925    4.9331    6.3699 H         1 <0>         0.0576
     49 H26        -1.2778    4.0047    7.5000 H         1 <0>         0.0582
@<TRIPOS>BOND
     1    1    2 1
     2    1   24 1
     3    1   25 1
     4    1   26 1
     5    2    3 1
     6    2    4 1
     7    2   27 1
     8    3   28 1
     9    3   29 1
    10    3   30 1
    11    4    9 ar
    12    4    5 ar
    13    5    6 ar
    14    5   31 1
    15    6    7 ar
    16    6   32 1
    17    7    8 ar
    18    7   33 1
    19    8    9 ar
    20    8   21 1
    21    9   10 1
    22   10   11 am
    23   10   34 1
    24   11   12 2
    25   11   13 am
    26   13   14 1
    27   13   35 1
    28   14   15 1
    29   14   36 1
    30   14   37 1
    31   15   20 ar
    32   15   16 ar
    33   16   17 ar
    34   16   38 1
    35   17   18 ar
    36   17   39 1
    37   18   19 ar
    38   18   40 1
    39   19   20 ar
    40   19   41 1
    41   20   42 1
    42   21   22 1
    43   21   23 1
    44   21   43 1
    45   22   44 1
    46   22   45 1
    47   22   46 1
    48   23   47 1
    49   23   48 1
    50   23   49 1
@<TRIPOS>MOLECULE
ZINC01023799
   64    67     0     0     0
SMALL
USER_CHARGES

@<TRIPOS>ATOM
      1 C1         -0.5042    1.4169   -1.0545 C.3       1 <0>        -0.1497
      2 C2         -0.4285   -0.1010   -0.8781 C.3       1 <0>        -0.1212
      3 C3          0.1257   -0.4261    0.5104 C.3       1 <0>        -0.0580
      4 C4          0.2002   -1.9212    0.6841 C.2       1 <0>         0.1446
      5 C5         -0.8088   -2.7135    1.1868 C.2       1 <0>        -0.1367
      6 C6         -0.2958   -4.0913    1.1723 C.2       1 <0>        -0.0799
      7 C7          1.0001   -4.0027    0.6525 C.2       1 <0>        -0.0408
      8 N1          1.2609   -2.6876    0.3664 N.pl3     1 <0>        -0.2057
      9 N2          2.5163   -2.3636   -0.1766 N.2       1 <0>        -0.3814
     10 C8          3.4013   -3.3071   -0.4004 C.2       1 <0>         0.5627
     11 N3          3.1540   -4.5892   -0.1282 N.2       1 <0>        -0.5431
     12 C9          2.0001   -4.9713    0.3917 C.2       1 <0>         0.3736
     13 C10         1.7495   -6.4011    0.6840 C.ar      1 <0>        -0.0769
     14 C11         0.6477   -7.0479    0.1237 C.ar      1 <0>        -0.0845
     15 C12         0.4199   -8.3804    0.3996 C.ar      1 <0>        -0.1158
     16 C13         1.2815   -9.0751    1.2298 C.ar      1 <0>        -0.0925
     17 C14         2.3757   -8.4392    1.7888 C.ar      1 <0>        -0.1207
     18 C15         2.6176   -7.1085    1.5161 C.ar      1 <0>        -0.0624
     19 N4          4.6326   -2.9596   -0.9375 N.pl3     1 <0>        -0.5729
     20 C16         4.9546   -1.5581   -1.2495 C.3       1 <0>         0.0895
     21 C17         6.3092   -1.2207   -0.6159 C.3       1 <0>         0.0479
     22 O1          7.2727   -2.1978   -1.0166 O.3       1 <0>        -0.3765
     23 C18         6.9755   -3.5262   -0.5798 C.3       1 <0>         0.0473
     24 C19         5.6572   -3.9810   -1.2063 C.3       1 <0>         0.0906
     25 C20        -0.9940   -5.3015    1.6102 C.2       1 <0>         0.5427
     26 O2         -1.7531   -5.8740    0.8514 O.2       1 <0>        -0.4778
     27 O3         -0.7956   -5.7816    2.8552 O.3       1 <0>        -0.3358
     28 C21        -1.4423   -7.0120    3.1868 C.3       1 <0>         0.0571
     29 C22        -1.0067   -7.4566    4.5845 C.3       1 <0>        -0.1513
     30 C23        -2.1358   -2.2690    1.6474 C.2       1 <0>         0.5456
     31 O4         -3.0643   -2.2167    0.8653 O.2       1 <0>        -0.4760
     32 O5         -2.3198   -1.9203    2.9360 O.3       1 <0>        -0.3399
     33 C24        -3.6322   -1.4990    3.3131 C.3       1 <0>         0.0570
     34 C25        -3.6466   -1.1465    4.8019 C.3       1 <0>        -0.1522
     35 H1          0.4931    1.8447   -0.9520 H         1 <0>         0.0567
     36 H2         -0.8990    1.6485   -2.0437 H         1 <0>         0.0596
     37 H3         -1.1605    1.8389   -0.2934 H         1 <0>         0.0569
     38 H4         -1.4258   -0.5288   -0.9806 H         1 <0>         0.0709
     39 H5          0.2278   -0.5230   -1.6392 H         1 <0>         0.0653
     40 H6          1.1230    0.0017    0.6129 H         1 <0>         0.0928
     41 H7         -0.5307   -0.0042    1.2715 H         1 <0>         0.0929
     42 H8         -0.0258   -6.5066   -0.5242 H         1 <0>         0.1329
     43 H9         -0.4330   -8.8822   -0.0332 H         1 <0>         0.1334
     44 H10         1.0989  -10.1180    1.4427 H         1 <0>         0.1309
     45 H11         3.0442   -8.9867    2.4367 H         1 <0>         0.1331
     46 H12         3.4745   -6.6143    1.9495 H         1 <0>         0.1290
     47 H13         5.0117   -1.4262   -2.3300 H         1 <0>         0.0828
     48 H14         4.1846   -0.9045   -0.8396 H         1 <0>         0.1061
     49 H15         6.6311   -0.2340   -0.9489 H         1 <0>         0.1125
     50 H16         6.2147   -1.2264    0.4700 H         1 <0>         0.0576
     51 H17         7.7769   -4.1983   -0.8868 H         1 <0>         0.1129
     52 H18         6.8835   -3.5404    0.5062 H         1 <0>         0.0570
     53 H19         5.3522   -4.9312   -0.7678 H         1 <0>         0.1101
     54 H20         5.7863   -4.0973   -2.2824 H         1 <0>         0.0813
     55 H21        -2.5229   -6.8702    3.1710 H         1 <0>         0.0691
     56 H22        -1.1653   -7.7755    2.4599 H         1 <0>         0.0721
     57 H23         0.0739   -7.5984    4.6004 H         1 <0>         0.0672
     58 H24        -1.2837   -6.6931    5.3114 H         1 <0>         0.0677
     59 H25        -1.5000   -8.3951    4.8374 H         1 <0>         0.0814
     60 H26        -3.9142   -0.6227    2.7295 H         1 <0>         0.0721
     61 H27        -4.3409   -2.3052    3.1237 H         1 <0>         0.0702
     62 H28        -3.3646   -2.0228    5.3855 H         1 <0>         0.0680
     63 H29        -2.9378   -0.3403    4.9912 H         1 <0>         0.0683
     64 H30        -4.6476   -0.8251    5.0895 H         1 <0>         0.0822
@<TRIPOS>BOND
     1    1    2 1
     2    1   35 1
     3    1   36 1
     4    1   37 1
     5    2    3 1
     6    2   38 1
     7    2   39 1
     8    3    4 1
     9    3   40 1
    10    3   41 1
    11    4    8 1
    12    4    5 2
    13    5    6 1
    14    5   30 1
    15    6    7 2
    16    6   25 1
    17    7   12 1
    18    7    8 1
    19    8    9 1
    20    9   10 2
    21   10   11 1
    22   10   19 1
    23   11   12 2
    24   12   13 1
    25   13   18 ar
    26   13   14 ar
    27   14   15 ar
    28   14   42 1
    29   15   16 ar
    30   15   43 1
    31   16   17 ar
    32   16   44 1
    33   17   18 ar
    34   17   45 1
    35   18   46 1
    36   19   24 1
    37   19   20 1
    38   20   21 1
    39   20   47 1
    40   20   48 1
    41   21   22 1
    42   21   49 1
    43   21   50 1
    44   22   23 1
    45   23   24 1
    46   23   51 1
    47   23   52 1
    48   24   53 1
    49   24   54 1
    50   25   26 2
    51   25   27 1
    52   27   28 1
    53   28   29 1
    54   28   55 1
    55   28   56 1
    56   29   57 1
    57   29   58 1
    58   29   59 1
    59   30   31 2
    60   30   32 1
    61   32   33 1
    62   33   34 1
    63   33   60 1
    64   33   61 1
    65   34   62 1
    66   34   63 1
    67   34   64 1
@<TRIPOS>MOLECULE
ZINC36349347
   65    65     0     0     0
SMALL
USER_CHARGES

@<TRIPOS>ATOM
      1 C1         -1.2645    1.2168   -0.4045 C.3       1 <0>        -0.1544
      2 C2         -0.9819   -0.2835   -0.3038 C.3       1 <0>        -0.1260
      3 C3         -0.2458   -0.7494   -1.5616 C.3       1 <0>        -0.1214
      4 C4          0.0367   -2.2497   -1.4609 C.3       1 <0>        -0.1210
      5 C5          0.7728   -2.7156   -2.7187 C.3       1 <0>        -0.1206
      6 C6          1.0554   -4.2159   -2.6180 C.3       1 <0>        -0.1205
      7 C7          1.7915   -4.6818   -3.8758 C.3       1 <0>        -0.1139
      8 C8          2.0741   -6.1821   -3.7751 C.3       1 <0>        -0.1018
      9 C9          2.7991   -6.6409   -5.0139 C.2       1 <0>        -0.1598
     10 C10         3.9217   -7.3076   -4.9068 C.2       1 <0>        -0.1601
     11 C11         4.4000   -7.7652   -3.5530 C.3       1 <0>        -0.1019
     12 C12         4.6611   -9.2723   -3.5869 C.3       1 <0>        -0.1142
     13 C13         5.1468   -9.7369   -2.2124 C.3       1 <0>        -0.1199
     14 C14         5.4079  -11.2441   -2.2464 C.3       1 <0>        -0.1205
     15 C15         5.8935  -11.7086   -0.8719 C.3       1 <0>        -0.1199
     16 C16         6.1546  -13.2158   -0.9058 C.3       1 <0>        -0.1059
     17 C17         6.6403  -13.6803    0.4687 C.3       1 <0>        -0.1393
     18 C18         6.8975  -15.1648    0.4353 C.2       1 <0>         0.5113
     19 O1          6.7107  -15.7898   -0.5873 O.2       1 <0>        -0.5181
     20 N1          7.3350  -15.7980    1.5417 N.am      1 <0>        -0.6778
     21 C19         7.4680  -17.1910    1.5442 C.ar      1 <0>         0.1400
     22 C20         7.1845  -17.9149    2.6948 C.ar      1 <0>        -0.1459
     23 C21         7.3168  -19.2897    2.6941 C.ar      1 <0>        -0.1024
     24 C22         7.7309  -19.9453    1.5492 C.ar      1 <0>        -0.1342
     25 C23         8.0144  -19.2273    0.4019 C.ar      1 <0>        -0.1027
     26 C24         7.8781  -17.8529    0.3943 C.ar      1 <0>        -0.1212
     27 H1         -0.3231    1.7585   -0.4962 H         1 <0>         0.0533
     28 H2         -1.8828    1.4121   -1.2807 H         1 <0>         0.0533
     29 H3         -1.7889    1.5487    0.4915 H         1 <0>         0.0534
     30 H4         -0.3636   -0.4788    0.5723 H         1 <0>         0.0602
     31 H5         -1.9233   -0.8252   -0.2122 H         1 <0>         0.0602
     32 H6         -0.8642   -0.5541   -2.4378 H         1 <0>         0.0606
     33 H7          0.6956   -0.2077   -1.6533 H         1 <0>         0.0606
     34 H8          0.6551   -2.4449   -0.5847 H         1 <0>         0.0605
     35 H9         -0.9047   -2.7914   -1.3692 H         1 <0>         0.0606
     36 H10         0.1545   -2.5203   -3.5948 H         1 <0>         0.0607
     37 H11         1.7142   -2.1739   -2.8104 H         1 <0>         0.0607
     38 H12         1.6737   -4.4111   -1.7418 H         1 <0>         0.0607
     39 H13         0.1140   -4.7576   -2.5263 H         1 <0>         0.0611
     40 H14         1.1732   -4.4865   -4.7519 H         1 <0>         0.0612
     41 H15         2.7329   -4.1401   -3.9674 H         1 <0>         0.0615
     42 H16         2.6924   -6.3773   -2.8989 H         1 <0>         0.0758
     43 H17         1.1326   -6.7237   -3.6834 H         1 <0>         0.0678
     44 H18         2.3932   -6.4202   -5.9901 H         1 <0>         0.1072
     45 H19         4.5043   -7.5293   -5.7887 H         1 <0>         0.1073
     46 H20         5.3218   -7.2424   -3.2975 H         1 <0>         0.0675
     47 H21         3.6383   -7.5451   -2.8050 H         1 <0>         0.0758
     48 H22         3.7394   -9.7951   -3.8423 H         1 <0>         0.0619
     49 H23         5.4228   -9.4924   -4.3349 H         1 <0>         0.0616
     50 H24         6.0685   -9.2141   -1.9570 H         1 <0>         0.0613
     51 H25         4.3851   -9.5168   -1.4645 H         1 <0>         0.0610
     52 H26         4.4861  -11.7668   -2.5018 H         1 <0>         0.0625
     53 H27         6.1696  -11.4641   -2.9943 H         1 <0>         0.0626
     54 H28         6.8153  -11.1858   -0.6164 H         1 <0>         0.0627
     55 H29         5.1318  -11.4886   -0.1239 H         1 <0>         0.0626
     56 H30         5.2329  -13.7385   -1.1612 H         1 <0>         0.0707
     57 H31         6.9164  -13.4358   -1.6538 H         1 <0>         0.0708
     58 H32         7.5620  -13.1575    0.7241 H         1 <0>         0.0970
     59 H33         5.8786  -13.4603    1.2167 H         1 <0>         0.0973
     60 H34         7.5578  -15.2881    2.3362 H         1 <0>         0.4113
     61 H35         6.8614  -17.4034    3.5895 H         1 <0>         0.1247
     62 H36         7.0968  -19.8533    3.5887 H         1 <0>         0.1264
     63 H37         7.8335  -21.0204    1.5511 H         1 <0>         0.1237
     64 H38         8.3379  -19.7422   -0.4906 H         1 <0>         0.1258
     65 H39         8.0947  -17.2931   -0.5035 H         1 <0>         0.1382
@<TRIPOS>BOND
     1    1    2 1
     2    1   27 1
     3    1   28 1
     4    1   29 1
     5    2    3 1
     6    2   30 1
     7    2   31 1
     8    3    4 1
     9    3   32 1
    10    3   33 1
    11    4    5 1
    12    4   34 1
    13    4   35 1
    14    5    6 1
    15    5   36 1
    16    5   37 1
    17    6    7 1
    18    6   38 1
    19    6   39 1
    20    7    8 1
    21    7   40 1
    22    7   41 1
    23    8    9 1
    24    8   42 1
    25    8   43 1
    26    9   10 2
    27    9   44 1
    28   10   11 1
    29   10   45 1
    30   11   12 1
    31   11   46 1
    32   11   47 1
    33   12   13 1
    34   12   48 1
    35   12   49 1
    36   13   14 1
    37   13   50 1
    38   13   51 1
    39   14   15 1
    40   14   52 1
    41   14   53 1
    42   15   16 1
    43   15   54 1
    44   15   55 1
    45   16   17 1
    46   16   56 1
    47   16   57 1
    48   17   18 1
    49   17   58 1
    50   17   59 1
    51   18   19 2
    52   18   20 am
    53   20   21 1
    54   20   60 1
    55   21   26 ar
    56   21   22 ar
    57   22   23 ar
    58   22   61 1
    59   23   24 ar
    60   23   62 1
    61   24   25 ar
    62   24   63 1
    63   25   26 ar
    64   25   64 1
    65   26   65 1
@<TRIPOS>MOLECULE
ZINC08022586
   67    67     0     0     0
SMALL
USER_CHARGES
2,2-dimethyl-N-(2,4,6-trimethoxyphenyl)-dodecanamide
@<TRIPOS>ATOM
      1 C1          8.9988   16.8566   -3.3957 C.3       1 <0>        -0.1542
      2 C2          7.6711   16.1053   -3.2782 C.3       1 <0>        -0.1263
      3 C3          7.9361   14.6704   -2.8180 C.3       1 <0>        -0.1211
      4 C4          6.6084   13.9192   -2.7005 C.3       1 <0>        -0.1214
      5 C5          6.8734   12.4843   -2.2403 C.3       1 <0>        -0.1202
      6 C6          5.5457   11.7330   -2.1228 C.3       1 <0>        -0.1210
      7 C7          5.8107   10.2981   -1.6627 C.3       1 <0>        -0.1192
      8 C8          4.4830    9.5468   -1.5451 C.3       1 <0>        -0.1203
      9 C9          4.7480    8.1119   -1.0850 C.3       1 <0>        -0.1222
     10 C10         3.4203    7.3607   -0.9675 C.3       1 <0>        -0.0945
     11 C11         3.6852    5.9258   -0.5073 C.3       1 <0>        -0.0776
     12 C12         4.3813    5.9474    0.8550 C.3       1 <0>        -0.1427
     13 C13         4.5818    5.2205   -1.5270 C.3       1 <0>        -0.1411
     14 C14         2.3775    5.1858   -0.3915 C.2       1 <0>         0.5322
     15 O1          1.3359    5.7506   -0.6516 O.2       1 <0>        -0.5283
     16 N1          2.3652    3.8965    0.0009 N.am      1 <0>        -0.6601
     17 C15         1.1591    3.1756    0.0077 C.ar      1 <0>         0.0310
     18 C16         0.7612    2.4725   -1.1250 C.ar      1 <0>         0.2111
     19 C17        -0.4288    1.7618   -1.1157 C.ar      1 <0>        -0.2738
     20 C18        -1.2253    1.7559    0.0195 C.ar      1 <0>         0.2113
     21 C19        -0.8280    2.4513    1.1518 C.ar      1 <0>        -0.3286
     22 C20         0.3611    3.1634    1.1473 C.ar      1 <0>         0.2134
     23 O2          0.7476    3.8492    2.2560 O.3       1 <0>        -0.2999
     24 C21        -0.1207    3.7924    3.3895 C.3       1 <0>         0.0252
     25 O3         -2.3949    1.0626    0.0244 O.3       1 <0>        -0.3098
     26 C22        -3.1659    1.0995    1.2269 C.3       1 <0>         0.0249
     27 O4          1.5388    2.4829   -2.2404 O.3       1 <0>        -0.2996
     28 C23         1.0681    1.7395   -3.3664 C.3       1 <0>         0.0237
     29 H1          9.4947   16.8720   -2.4252 H         1 <0>         0.0532
     30 H2          9.6375   16.3541   -4.1221 H         1 <0>         0.0532
     31 H3          8.8101   17.8788   -3.7236 H         1 <0>         0.0533
     32 H4          7.1752   16.0899   -4.2487 H         1 <0>         0.0602
     33 H5          7.0324   16.6078   -2.5518 H         1 <0>         0.0602
     34 H6          8.4320   14.6858   -1.8475 H         1 <0>         0.0604
     35 H7          8.5748   14.1680   -3.5445 H         1 <0>         0.0604
     36 H8          6.1125   13.9038   -3.6711 H         1 <0>         0.0605
     37 H9          5.9697   14.4216   -1.9741 H         1 <0>         0.0604
     38 H10         7.3693   12.4997   -1.2698 H         1 <0>         0.0602
     39 H11         7.5121   11.9818   -2.9668 H         1 <0>         0.0602
     40 H12         5.0498   11.7176   -3.0934 H         1 <0>         0.0605
     41 H13         4.9070   12.2354   -1.3964 H         1 <0>         0.0604
     42 H14         6.3066   10.3135   -0.6921 H         1 <0>         0.0601
     43 H15         6.4494    9.7957   -2.3891 H         1 <0>         0.0602
     44 H16         3.9871    9.5314   -2.5157 H         1 <0>         0.0611
     45 H17         3.8443   10.0493   -0.8187 H         1 <0>         0.0610
     46 H18         5.2438    8.1273   -0.1144 H         1 <0>         0.0650
     47 H19         5.3867    7.6095   -1.8114 H         1 <0>         0.0652
     48 H20         2.9244    7.3453   -1.9380 H         1 <0>         0.0686
     49 H21         2.7816    7.8631   -0.2410 H         1 <0>         0.0684
     50 H22         4.5701    4.9251    1.1829 H         1 <0>         0.0585
     51 H23         5.3272    6.4826    0.7713 H         1 <0>         0.0721
     52 H24         3.7426    6.4498    1.5815 H         1 <0>         0.0613
     53 H25         4.0859    5.2051   -2.4975 H         1 <0>         0.0614
     54 H26         5.5276    5.7557   -1.6107 H         1 <0>         0.0713
     55 H27         4.7705    4.1983   -1.1991 H         1 <0>         0.0594
     56 H28         3.1890    3.4662    0.2786 H         1 <0>         0.4034
     57 H29        -0.7381    1.2159   -1.9948 H         1 <0>         0.1432
     58 H30        -1.4478    2.4415    2.0362 H         1 <0>         0.1404
     59 H31        -1.0965    4.1968    3.1203 H         1 <0>         0.0577
     60 H32        -0.2325    2.7566    3.7100 H         1 <0>         0.0578
     61 H33         0.3045    4.3805    4.2027 H         1 <0>         0.1043
     62 H34        -2.5785    0.6886    2.0480 H         1 <0>         0.0580
     63 H35        -3.4359    2.1309    1.4539 H         1 <0>         0.0582
     64 H36        -4.0716    0.5072    1.0962 H         1 <0>         0.1046
     65 H37         0.9647    0.6898   -3.0912 H         1 <0>         0.0605
     66 H38         0.1001    2.1298   -3.6806 H         1 <0>         0.0601
     67 H39         1.7805    1.8317   -4.1862 H         1 <0>         0.1040
@<TRIPOS>BOND
     1    1    2 1
     2    1   29 1
     3    1   30 1
     4    1   31 1
     5    2    3 1
     6    2   32 1
     7    2   33 1
     8    3    4 1
     9    3   34 1
    10    3   35 1
    11    4    5 1
    12    4   36 1
    13    4   37 1
    14    5    6 1
    15    5   38 1
    16    5   39 1
    17    6    7 1
    18    6   40 1
    19    6   41 1
    20    7    8 1
    21    7   42 1
    22    7   43 1
    23    8    9 1
    24    8   44 1
    25    8   45 1
    26    9   10 1
    27    9   46 1
    28    9   47 1
    29   10   11 1
    30   10   48 1
    31   10   49 1
    32   11   12 1
    33   11   13 1
    34   11   14 1
    35   12   50 1
    36   12   51 1
    37   12   52 1
    38   13   53 1
    39   13   54 1
    40   13   55 1
    41   14   15 2
    42   14   16 am
    43   16   17 1
    44   16   56 1
    45   17   22 ar
    46   17   18 ar
    47   18   19 ar
    48   18   27 1
    49   19   20 ar
    50   19   57 1
    51   20   21 ar
    52   20   25 1
    53   21   22 ar
    54   21   58 1
    55   22   23 1
    56   23   24 1
    57   24   59 1
    58   24   60 1
    59   24   61 1
    60   25   26 1
    61   26   62 1
    62   26   63 1
    63   26   64 1
    64   27   28 1
    65   28   65 1
    66   28   66 1
    67   28   67 1
@<TRIPOS>MOLECULE
ZINC01533679
   67    68     0     0     0
SMALL
USER_CHARGES
(2,6-diisopropylphenyl) (2,6-diisopropylphenoxy)sulfonylaminoformate
@<TRIPOS>ATOM
      1 C1         -3.2251   -0.3014    8.1219 C.3       1 <0>        -0.1501
      2 C2         -2.7553   -1.7115    7.7591 C.3       1 <0>        -0.0702
      3 C3         -2.0278   -2.3301    8.9545 C.3       1 <0>        -0.1437
      4 C4         -3.9472   -2.5616    7.4016 C.ar      1 <0>        -0.0601
      5 C5         -4.9979   -2.6875    8.2897 C.ar      1 <0>        -0.1101
      6 C6         -6.0893   -3.4715    7.9645 C.ar      1 <0>        -0.0985
      7 C7         -6.1342   -4.1278    6.7484 C.ar      1 <0>        -0.1098
      8 C8         -5.0880   -4.0017    5.8551 C.ar      1 <0>        -0.0619
      9 C9         -3.9920   -3.2153    6.1789 C.ar      1 <0>         0.0836
     10 O1         -2.9611   -3.0900    5.3017 O.3       1 <0>        -0.2810
     11 C10        -2.9871   -2.0267    4.4755 C.2       1 <0>         0.6578
     12 O2         -3.8440   -1.1754    4.6077 O.2       1 <0>        -0.4911
     13 N1         -2.0627   -1.9070    3.5021 N.am      1 <0>        -1.0433
     14 S1         -2.0207   -0.5435    2.5633 S.o2      1 <0>         2.7544
     15 O3         -3.3701   -0.1430    2.3682 O.2       1 <0>        -0.9023
     16 O4         -1.1448   -0.8231    1.4799 O.2       1 <0>        -0.9390
     17 O5         -1.3573    0.5504    3.3878 O.3       1 <0>        -0.6542
     18 C11        -0.0018    0.4636    3.4326 C.ar      1 <0>         0.0482
     19 C12         0.6184   -0.1868    4.4895 C.ar      1 <0>        -0.0662
     20 C13         1.9967   -0.2682    4.5357 C.ar      1 <0>        -0.1058
     21 C14         2.7577    0.2925    3.5267 C.ar      1 <0>        -0.0863
     22 C15         2.1419    0.9363    2.4694 C.ar      1 <0>        -0.1049
     23 C16         0.7639    1.0208    2.4187 C.ar      1 <0>        -0.0369
     24 C17         0.0933    1.7231    1.2662 C.3       1 <0>        -0.0611
     25 C18         0.4690    1.0270   -0.0434 C.3       1 <0>        -0.1520
     26 C19         0.5547    3.1811    1.2194 C.3       1 <0>        -0.1459
     27 C20        -0.2105   -0.7985    5.5893 C.3       1 <0>        -0.0701
     28 C21         0.1885   -2.2640    5.7737 C.3       1 <0>        -0.1547
     29 C22         0.0306   -0.0363    6.8938 C.3       1 <0>        -0.1492
     30 C23        -5.1371   -4.7181    4.5302 C.3       1 <0>        -0.0626
     31 C24        -5.2393   -6.2259    4.7693 C.3       1 <0>        -0.1412
     32 C25        -6.3573   -4.2434    3.7386 C.3       1 <0>        -0.1485
     33 H1         -3.8310   -0.3419    9.0270 H         1 <0>         0.0604
     34 H2         -2.3586    0.3375    8.2930 H         1 <0>         0.0619
     35 H3         -3.8202    0.1050    7.3041 H         1 <0>         0.0620
     36 H4         -2.0768   -1.6606    6.9075 H         1 <0>         0.0826
     37 H5         -2.7063   -2.3810    9.8061 H         1 <0>         0.0608
     38 H6         -1.6931   -3.3347    8.6960 H         1 <0>         0.0583
     39 H7         -1.1657   -1.7152    9.2130 H         1 <0>         0.0626
     40 H8         -4.9651   -2.1757    9.2402 H         1 <0>         0.1319
     41 H9         -6.9081   -3.5716    8.6617 H         1 <0>         0.1310
     42 H10        -6.9877   -4.7399    6.4968 H         1 <0>         0.1325
     43 H11        -1.4220   -2.6195    3.3514 H         1 <0>         0.4390
     44 H12         2.4801   -0.7705    5.3606 H         1 <0>         0.1400
     45 H13         3.8351    0.2278    3.5647 H         1 <0>         0.1380
     46 H14         2.7385    1.3737    1.6826 H         1 <0>         0.1404
     47 H15        -0.9880    1.6882    1.3991 H         1 <0>         0.0612
     48 H16         0.1403   -0.0118   -0.0101 H         1 <0>         0.0863
     49 H17         1.5503    1.0618   -0.1763 H         1 <0>         0.0587
     50 H18        -0.0161    1.5349   -0.8770 H         1 <0>         0.0609
     51 H19         0.0696    3.6891    0.3858 H         1 <0>         0.0662
     52 H20         0.2871    3.6770    2.1524 H         1 <0>         0.0586
     53 H21         1.6360    3.2160    1.0865 H         1 <0>         0.0632
     54 H22        -1.2662   -0.7400    5.3241 H         1 <0>         0.0660
     55 H23         0.1348   -2.7787    4.8144 H         1 <0>         0.0559
     56 H24         1.2071   -2.3176    6.1582 H         1 <0>         0.0701
     57 H25        -0.4919   -2.7398    6.4799 H         1 <0>         0.0728
     58 H26        -0.3342    0.9857    6.7902 H         1 <0>         0.0613
     59 H27        -0.5005   -0.5309    7.7071 H         1 <0>         0.0718
     60 H28         1.0981   -0.0205    7.1135 H         1 <0>         0.0646
     61 H29        -4.2305   -4.5004    3.9656 H         1 <0>         0.0757
     62 H30        -6.1459   -6.4436    5.3339 H         1 <0>         0.0596
     63 H31        -5.2748   -6.7441    3.8110 H         1 <0>         0.0619
     64 H32        -4.3700   -6.5641    5.3332 H         1 <0>         0.0579
     65 H33        -6.2844   -3.1693    3.5683 H         1 <0>         0.0590
     66 H34        -6.3928   -4.7616    2.7803 H         1 <0>         0.0625
     67 H35        -7.2639   -4.4611    4.3032 H         1 <0>         0.0611
@<TRIPOS>BOND
     1    1    2 1
     2    1   33 1
     3    1   34 1
     4    1   35 1
     5    2    3 1
     6    2    4 1
     7    2   36 1
     8    3   37 1
     9    3   38 1
    10    3   39 1
    11    4    9 ar
    12    4    5 ar
    13    5    6 ar
    14    5   40 1
    15    6    7 ar
    16    6   41 1
    17    7    8 ar
    18    7   42 1
    19    8    9 ar
    20    8   30 1
    21    9   10 1
    22   10   11 1
    23   11   12 2
    24   11   13 am
    25   13   14 1
    26   13   43 1
    27   14   15 2
    28   14   16 2
    29   14   17 1
    30   17   18 1
    31   18   23 ar
    32   18   19 ar
    33   19   20 ar
    34   19   27 1
    35   20   21 ar
    36   20   44 1
    37   21   22 ar
    38   21   45 1
    39   22   23 ar
    40   22   46 1
    41   23   24 1
    42   24   25 1
    43   24   26 1
    44   24   47 1
    45   25   48 1
    46   25   49 1
    47   25   50 1
    48   26   51 1
    49   26   52 1
    50   26   53 1
    51   27   28 1
    52   27   29 1
    53   27   54 1
    54   28   55 1
    55   28   56 1
    56   28   57 1
    57   29   58 1
    58   29   59 1
    59   29   60 1
    60   30   31 1
    61   30   32 1
    62   30   61 1
    63   31   62 1
    64   31   63 1
    65   31   64 1
    66   32   65 1
    67   32   66 1
    68   32   67 1
@<TRIPOS>MOLECULE
ZINC36330844
   67    68     0     0     0
SMALL
USER_CHARGES

@<TRIPOS>ATOM
      1 C1         -0.0297    1.5392   -0.0459 C.3       1 <0>        -0.1544
      2 C2         -0.0109    0.0093   -0.0496 C.3       1 <0>        -0.1263
      3 C3          0.7145   -0.4888   -1.3012 C.3       1 <0>        -0.1207
      4 C4          0.7333   -2.0187   -1.3049 C.3       1 <0>        -0.1199
      5 C5          1.4587   -2.5168   -2.5565 C.3       1 <0>        -0.1177
      6 C6          1.4775   -4.0467   -2.5601 C.3       1 <0>        -0.1410
      7 C7          2.2030   -4.5448   -3.8118 C.3       1 <0>         0.1061
      8 N1          2.2210   -6.0097   -3.8153 N.am      1 <0>        -0.6143
      9 C8          1.1303   -6.7541   -4.4496 C.3       1 <0>         0.1725
     10 C9          1.4647   -6.9977   -5.8988 C.ar      1 <0>        -0.1165
     11 C10         1.0914   -6.0756   -6.8587 C.ar      1 <0>        -0.1043
     12 C11         1.3981   -6.2991   -8.1879 C.ar      1 <0>        -0.1200
     13 C12         2.0785   -7.4443   -8.5572 C.ar      1 <0>        -0.0668
     14 C13         2.4525   -8.3660   -7.5972 C.ar      1 <0>        -0.1188
     15 C14         2.1496   -8.1404   -6.2674 C.ar      1 <0>        -0.0907
     16 C15         2.4120   -7.6884  -10.0064 C.3       1 <0>        -0.0745
     17 C16         3.7798   -7.0811  -10.3242 C.3       1 <0>        -0.0625
     18 C17         4.8448   -7.7319   -9.4392 C.3       1 <0>        -0.1449
     19 C18         4.1184   -7.3289  -11.7956 C.3       1 <0>        -0.1428
     20 C19         3.7441   -5.5753  -10.0557 C.3       1 <0>        -0.1443
     21 C20         3.2410   -6.6725   -3.2349 C.2       1 <0>         0.7117
     22 O1          3.2559   -7.8883   -3.2378 O.2       1 <0>        -0.5667
     23 N2          4.2444   -5.9876   -2.6513 N.am      1 <0>        -0.6825
     24 C21         5.2569   -6.6747   -1.9671 C.ar      1 <0>         0.1261
     25 C22         5.6844   -7.9145   -2.4208 C.ar      1 <0>        -0.0647
     26 C23         6.6826   -8.5901   -1.7457 C.ar      1 <0>        -0.1413
     27 C24         7.2571   -8.0318   -0.6162 C.ar      1 <0>         0.1136
     28 C25         6.8329   -6.7953   -0.1602 C.ar      1 <0>        -0.1717
     29 C26         5.8382   -6.1124   -0.8363 C.ar      1 <0>         0.0997
     30 F1          5.4282   -4.9030   -0.3953 F         1 <0>        -0.1291
     31 F2          8.2328   -8.6951    0.0422 F         1 <0>        -0.1303
     32 H1          0.9934    1.9152   -0.0467 H         1 <0>         0.0535
     33 H2         -0.5494    1.8983   -0.9342 H         1 <0>         0.0534
     34 H3         -0.5465    1.8941    0.8458 H         1 <0>         0.0537
     35 H4          0.5088   -0.3498    0.8387 H         1 <0>         0.0605
     36 H5         -1.0340   -0.3666   -0.0488 H         1 <0>         0.0603
     37 H6          0.1948   -0.1297   -2.1895 H         1 <0>         0.0612
     38 H7          1.7376   -0.1128   -1.3019 H         1 <0>         0.0613
     39 H8          1.2530   -2.3778   -0.4166 H         1 <0>         0.0619
     40 H9         -0.2898   -2.3946   -1.3041 H         1 <0>         0.0618
     41 H10         0.9390   -2.1577   -3.4448 H         1 <0>         0.0653
     42 H11         2.4819   -2.1408   -2.5572 H         1 <0>         0.0638
     43 H12         1.9972   -4.4058   -1.6719 H         1 <0>         0.0661
     44 H13         0.4544   -4.4226   -2.5594 H         1 <0>         0.0711
     45 H14         1.6833   -4.1857   -4.7000 H         1 <0>         0.0878
     46 H15         3.2261   -4.1688   -3.8125 H         1 <0>         0.0717
     47 H16         0.9988   -7.7094   -3.9416 H         1 <0>         0.0955
     48 H17         0.2084   -6.1765   -4.3816 H         1 <0>         0.0880
     49 H18         0.5599   -5.1809   -6.5701 H         1 <0>         0.1179
     50 H19         1.1059   -5.5791   -8.9379 H         1 <0>         0.1198
     51 H20         2.9838   -9.2609   -7.8857 H         1 <0>         0.1199
     52 H21         2.4451   -8.8587   -5.5169 H         1 <0>         0.1276
     53 H22         2.4374   -8.7612  -10.1977 H         1 <0>         0.0723
     54 H23         1.6533   -7.2248  -10.6369 H         1 <0>         0.0720
     55 H24         4.8703   -8.8046   -9.6305 H         1 <0>         0.0538
     56 H25         5.8193   -7.2992   -9.6657 H         1 <0>         0.0529
     57 H26         4.6036   -7.5553   -8.3910 H         1 <0>         0.0593
     58 H27         3.3597   -6.8653  -12.4261 H         1 <0>         0.0551
     59 H28         5.0929   -6.8963  -12.0220 H         1 <0>         0.0562
     60 H29         4.1439   -8.4017  -11.9869 H         1 <0>         0.0553
     61 H30         3.5029   -5.3988   -9.0075 H         1 <0>         0.0591
     62 H31         4.7186   -5.1426  -10.2822 H         1 <0>         0.0528
     63 H32         2.9854   -5.1117  -10.6862 H         1 <0>         0.0534
     64 H33         4.2660   -5.0193   -2.7047 H         1 <0>         0.4102
     65 H34         5.2366   -8.3513   -3.3012 H         1 <0>         0.1623
     66 H35         7.0150   -9.5550   -2.0991 H         1 <0>         0.1474
     67 H36         7.2821   -6.3618    0.7211 H         1 <0>         0.1529
@<TRIPOS>BOND
     1    1    2 1
     2    1   32 1
     3    1   33 1
     4    1   34 1
     5    2    3 1
     6    2   35 1
     7    2   36 1
     8    3    4 1
     9    3   37 1
    10    3   38 1
    11    4    5 1
    12    4   39 1
    13    4   40 1
    14    5    6 1
    15    5   41 1
    16    5   42 1
    17    6    7 1
    18    6   43 1
    19    6   44 1
    20    7    8 1
    21    7   45 1
    22    7   46 1
    23    8    9 1
    24    8   21 am
    25    9   10 1
    26    9   47 1
    27    9   48 1
    28   10   15 ar
    29   10   11 ar
    30   11   12 ar
    31   11   49 1
    32   12   13 ar
    33   12   50 1
    34   13   14 ar
    35   13   16 1
    36   14   15 ar
    37   14   51 1
    38   15   52 1
    39   16   17 1
    40   16   53 1
    41   16   54 1
    42   17   18 1
    43   17   19 1
    44   17   20 1
    45   18   55 1
    46   18   56 1
    47   18   57 1
    48   19   58 1
    49   19   59 1
    50   19   60 1
    51   20   61 1
    52   20   62 1
    53   20   63 1
    54   21   22 2
    55   21   23 am
    56   23   24 1
    57   23   64 1
    58   24   29 ar
    59   24   25 ar
    60   25   26 ar
    61   25   65 1
    62   26   27 ar
    63   26   66 1
    64   27   28 ar
    65   27   31 1
    66   28   29 ar
    67   28   67 1
    68   29   30 1
@<TRIPOS>MOLECULE
ZINC01889413
   62    64     0     0     0
SMALL
USER_CHARGES
1-(2,6-diisopropylphenyl)-3-[(1-phenylcyclopentyl)methyl]urea
@<TRIPOS>ATOM
      1 C1          3.1748    0.0129    3.4807 C.3       1 <0>        -0.1339
      2 C2          1.7064   -0.4142    3.4325 C.3       1 <0>        -0.0546
      3 C3          1.6220   -1.9342    3.2799 C.3       1 <0>        -0.1443
      4 C4          1.0202    0.0014    4.7083 C.ar      1 <0>        -0.0587
      5 C5          1.5677   -0.3383    5.9300 C.ar      1 <0>        -0.1094
      6 C6          0.9357    0.0377    7.1011 C.ar      1 <0>        -0.1202
      7 C7         -0.2431    0.7591    7.0532 C.ar      1 <0>        -0.1090
      8 C8         -0.7929    1.1063    5.8347 C.ar      1 <0>        -0.0859
      9 C9         -0.1606    0.7303    4.6569 C.ar      1 <0>         0.1610
     10 N1         -0.7154    1.0802    3.4207 N.am      1 <0>        -0.6907
     11 C10         0.0356    1.7188    2.5016 C.2       1 <0>         0.7031
     12 O1          1.1754    2.0467    2.7692 O.2       1 <0>        -0.5634
     13 N2         -0.4770    1.9941    1.2859 N.am      1 <0>        -0.7409
     14 C11         0.3393    2.6883    0.2868 C.3       1 <0>         0.1509
     15 C12        -0.5120    2.9873   -0.9488 C.3       1 <0>        -0.0327
     16 C13        -1.1287    1.6862   -1.4915 C.3       1 <0>        -0.1180
     17 C14        -0.5946    1.5130   -2.9295 C.3       1 <0>        -0.1234
     18 C15         0.7223    2.3281   -2.9469 C.3       1 <0>        -0.1262
     19 C16         0.3736    3.5597   -2.0748 C.3       1 <0>        -0.1086
     20 C17        -1.6013    3.9684   -0.5996 C.ar      1 <0>        -0.0734
     21 C18        -1.6618    4.5109    0.6704 C.ar      1 <0>        -0.1185
     22 C19        -2.6578    5.4149    0.9891 C.ar      1 <0>        -0.1176
     23 C20        -3.5999    5.7681    0.0411 C.ar      1 <0>        -0.1220
     24 C21        -3.5428    5.2212   -1.2272 C.ar      1 <0>        -0.1187
     25 C22        -2.5434    4.3216   -1.5476 C.ar      1 <0>        -0.1127
     26 C23        -2.0778    1.8921    5.7834 C.3       1 <0>        -0.0537
     27 C24        -3.1878    1.1003    6.4775 C.3       1 <0>        -0.1448
     28 C25        -1.8849    3.2321    6.4962 C.3       1 <0>        -0.1421
     29 H1          3.2348    1.0958    3.5895 H         1 <0>         0.0663
     30 H2          3.6645   -0.4652    4.3290 H         1 <0>         0.0478
     31 H3          3.6710   -0.2877    2.5580 H         1 <0>         0.0495
     32 H4          1.2166    0.0639    2.5842 H         1 <0>         0.0842
     33 H5          0.5759   -2.2385    3.2455 H         1 <0>         0.0502
     34 H6          2.1183   -2.2348    2.3571 H         1 <0>         0.0552
     35 H7          2.1118   -2.4123    4.1282 H         1 <0>         0.0547
     36 H8          2.4882   -0.9016    5.9707 H         1 <0>         0.1233
     37 H9          1.3634   -0.2330    8.0551 H         1 <0>         0.1226
     38 H10        -0.7345    1.0509    7.9695 H         1 <0>         0.1234
     39 H11        -1.6403    0.8630    3.2253 H         1 <0>         0.4027
     40 H12        -1.3863    1.7325    1.0723 H         1 <0>         0.3977
     41 H13         1.1816    2.0571    0.0036 H         1 <0>         0.0715
     42 H14         0.7107    3.6229    0.7070 H         1 <0>         0.0739
     43 H15        -0.8215    0.8417   -0.8746 H         1 <0>         0.0709
     44 H16        -2.2158    1.7647   -1.5031 H         1 <0>         0.0703
     45 H17        -1.3039    1.9188   -3.6509 H         1 <0>         0.0663
     46 H18        -0.3956    0.4619   -3.1387 H         1 <0>         0.0672
     47 H19         0.9746    2.6329   -3.9626 H         1 <0>         0.0699
     48 H20         1.5362    1.7567   -2.5006 H         1 <0>         0.0693
     49 H21        -0.1793    4.2960   -2.6581 H         1 <0>         0.0757
     50 H22         1.2782    4.0043   -1.6599 H         1 <0>         0.0725
     51 H23        -0.9284    4.2316    1.4124 H         1 <0>         0.1270
     52 H24        -2.7023    5.8424    1.9799 H         1 <0>         0.1192
     53 H25        -4.3803    6.4715    0.2912 H         1 <0>         0.1199
     54 H26        -4.2788    5.4971   -1.9679 H         1 <0>         0.1210
     55 H27        -2.4987    3.8943   -2.5385 H         1 <0>         0.1212
     56 H28        -2.3537    2.0699    4.7440 H         1 <0>         0.0730
     57 H29        -3.3252    0.1457    5.9697 H         1 <0>         0.0547
     58 H30        -2.9119    0.9225    7.5169 H         1 <0>         0.0587
     59 H31        -4.1172    1.6686    6.4404 H         1 <0>         0.0583
     60 H32        -1.0941    3.7962    6.0018 H         1 <0>         0.0551
     61 H33        -2.8143    3.8004    6.4592 H         1 <0>         0.0574
     62 H34        -1.6090    3.0543    7.5356 H         1 <0>         0.0578
@<TRIPOS>BOND
     1    1    2 1
     2    1   29 1
     3    1   30 1
     4    1   31 1
     5    2    3 1
     6    2    4 1
     7    2   32 1
     8    3   33 1
     9    3   34 1
    10    3   35 1
    11    4    9 ar
    12    4    5 ar
    13    5    6 ar
    14    5   36 1
    15    6    7 ar
    16    6   37 1
    17    7    8 ar
    18    7   38 1
    19    8    9 ar
    20    8   26 1
    21    9   10 1
    22   10   11 am
    23   10   39 1
    24   11   12 2
    25   11   13 am
    26   13   14 1
    27   13   40 1
    28   14   15 1
    29   14   41 1
    30   14   42 1
    31   15   19 1
    32   15   16 1
    33   15   20 1
    34   16   17 1
    35   16   43 1
    36   16   44 1
    37   17   18 1
    38   17   45 1
    39   17   46 1
    40   18   19 1
    41   18   47 1
    42   18   48 1
    43   19   49 1
    44   19   50 1
    45   20   25 ar
    46   20   21 ar
    47   21   22 ar
    48   21   51 1
    49   22   23 ar
    50   22   52 1
    51   23   24 ar
    52   23   53 1
    53   24   25 ar
    54   24   54 1
    55   25   55 1
    56   26   27 1
    57   26   28 1
    58   26   56 1
    59   27   57 1
    60   27   58 1
    61   27   59 1
    62   28   60 1
    63   28   61 1
    64   28   62 1
@<TRIPOS>MOLECULE
ZINC36349608
   78    78     0     0     0
SMALL
USER_CHARGES

@<TRIPOS>ATOM
      1 C1          3.1080    2.9829    1.2396 C.3       1 <0>        -0.1543
      2 C2          3.6706    1.5699    1.0734 C.3       1 <0>        -0.1262
      3 C3          3.5110    0.7997    2.3858 C.3       1 <0>        -0.1213
      4 C4          4.0736   -0.6133    2.2196 C.3       1 <0>        -0.1212
      5 C5          3.9140   -1.3835    3.5319 C.3       1 <0>        -0.1207
      6 C6          4.4766   -2.7965    3.3657 C.3       1 <0>        -0.1206
      7 C7          4.3170   -3.5666    4.6781 C.3       1 <0>        -0.1205
      8 C8          4.8796   -4.9797    4.5119 C.3       1 <0>        -0.1207
      9 C9          4.7200   -5.7498    5.8243 C.3       1 <0>        -0.1205
     10 C10         5.2826   -7.1629    5.6581 C.3       1 <0>        -0.1207
     11 C11         5.1230   -7.9330    6.9704 C.3       1 <0>        -0.1205
     12 C12         5.6856   -9.3461    6.8042 C.3       1 <0>        -0.1209
     13 C13         5.5259  -10.1162    8.1166 C.3       1 <0>        -0.1203
     14 C14         6.0886  -11.5293    7.9504 C.3       1 <0>        -0.1212
     15 C15         5.9289  -12.2994    9.2627 C.3       1 <0>        -0.1189
     16 C16         6.4916  -13.7125    9.0965 C.3       1 <0>        -0.1171
     17 C17         6.3319  -14.4826   10.4089 C.3       1 <0>        -0.1313
     18 C18         6.8946  -15.8956   10.2427 C.3       1 <0>         0.1372
     19 N1          6.7417  -16.6331   11.4993 N.am      1 <0>        -0.7451
     20 C19         7.1697  -17.9079   11.5889 C.2       1 <0>         0.7028
     21 O1          7.6827  -18.4460   10.6268 O.2       1 <0>        -0.5690
     22 N2          7.0291  -18.5863   12.7449 N.am      1 <0>        -0.6900
     23 C20         7.3700  -19.9422   12.8065 C.ar      1 <0>         0.1543
     24 C21         8.2592  -20.3929   13.7731 C.ar      1 <0>        -0.0950
     25 C22         8.5933  -21.7318   13.8316 C.ar      1 <0>        -0.1151
     26 C23         8.0432  -22.6231   12.9288 C.ar      1 <0>        -0.1172
     27 C24         7.1577  -22.1774   11.9647 C.ar      1 <0>        -0.1146
     28 C25         6.8153  -20.8408   11.9046 C.ar      1 <0>        -0.0704
     29 C26         5.8451  -20.3570   10.8579 C.3       1 <0>        -0.1062
     30 C27         8.8595  -19.4221   14.7571 C.3       1 <0>        -0.1135
     31 H1          3.6501    3.4990    2.0320 H         1 <0>         0.0533
     32 H2          3.2217    3.5316    0.3047 H         1 <0>         0.0535
     33 H3          2.0513    2.9249    1.5006 H         1 <0>         0.0533
     34 H4          3.1285    1.0538    0.2810 H         1 <0>         0.0603
     35 H5          4.7273    1.6279    0.8125 H         1 <0>         0.0603
     36 H6          4.0531    1.3158    3.1782 H         1 <0>         0.0605
     37 H7          2.4543    0.7417    2.6468 H         1 <0>         0.0605
     38 H8          3.5315   -1.1294    1.4272 H         1 <0>         0.0605
     39 H9          5.1303   -0.5553    1.9586 H         1 <0>         0.0605
     40 H10         4.4561   -0.8674    4.3243 H         1 <0>         0.0604
     41 H11         2.8573   -1.4415    3.7929 H         1 <0>         0.0604
     42 H12         3.9345   -3.3126    2.5734 H         1 <0>         0.0604
     43 H13         5.5333   -2.7385    3.1048 H         1 <0>         0.0604
     44 H14         4.8591   -3.0506    5.4705 H         1 <0>         0.0603
     45 H15         3.2603   -3.6247    4.9391 H         1 <0>         0.0603
     46 H16         4.3375   -5.4958    3.7195 H         1 <0>         0.0604
     47 H17         5.9363   -4.9216    4.2509 H         1 <0>         0.0603
     48 H18         5.2621   -5.2338    6.6166 H         1 <0>         0.0602
     49 H19         3.6633   -5.8079    6.0852 H         1 <0>         0.0602
     50 H20         4.7405   -7.6789    4.8657 H         1 <0>         0.0604
     51 H21         6.3393   -7.1048    5.3971 H         1 <0>         0.0604
     52 H22         5.6651   -7.4170    7.7628 H         1 <0>         0.0602
     53 H23         4.0662   -7.9911    7.2314 H         1 <0>         0.0602
     54 H24         5.1435   -9.8621    6.0118 H         1 <0>         0.0606
     55 H25         6.7423   -9.2880    6.5432 H         1 <0>         0.0606
     56 H26         6.0681   -9.6001    8.9090 H         1 <0>         0.0604
     57 H27         4.4692  -10.1743    8.3776 H         1 <0>         0.0604
     58 H28         5.5465  -12.0453    7.1580 H         1 <0>         0.0616
     59 H29         7.1453  -11.4712    7.6894 H         1 <0>         0.0616
     60 H30         6.4711  -11.7833   10.0551 H         1 <0>         0.0617
     61 H31         4.8722  -12.3574    9.5237 H         1 <0>         0.0617
     62 H32         5.9495  -14.2285    8.3041 H         1 <0>         0.0661
     63 H33         7.5483  -13.6544    8.8356 H         1 <0>         0.0661
     64 H34         6.8741  -13.9665   11.2013 H         1 <0>         0.0691
     65 H35         5.2752  -14.5406   10.6699 H         1 <0>         0.0692
     66 H36         6.3524  -16.4117    9.4503 H         1 <0>         0.0675
     67 H37         7.9513  -15.8376    9.9817 H         1 <0>         0.0673
     68 H38         6.3325  -16.2038   12.2669 H         1 <0>         0.3966
     69 H39         6.6916  -18.1348   13.5343 H         1 <0>         0.4035
     70 H40         9.2851  -22.0828   14.5829 H         1 <0>         0.1254
     71 H41         8.3060  -23.6696   12.9765 H         1 <0>         0.1245
     72 H42         6.7301  -22.8760   11.2607 H         1 <0>         0.1250
     73 H43         6.3762  -20.1859    9.9215 H         1 <0>         0.0826
     74 H44         5.0712  -21.1091   10.7044 H         1 <0>         0.0611
     75 H45         5.3861  -19.4259   11.1905 H         1 <0>         0.0550
     76 H46         8.2288  -19.3674   15.6444 H         1 <0>         0.0704
     77 H47         9.8561  -19.7611   15.0401 H         1 <0>         0.0700
     78 H48         8.9279  -18.4356   14.2986 H         1 <0>         0.0636
@<TRIPOS>BOND
     1    1    2 1
     2    1   31 1
     3    1   32 1
     4    1   33 1
     5    2    3 1
     6    2   34 1
     7    2   35 1
     8    3    4 1
     9    3   36 1
    10    3   37 1
    11    4    5 1
    12    4   38 1
    13    4   39 1
    14    5    6 1
    15    5   40 1
    16    5   41 1
    17    6    7 1
    18    6   42 1
    19    6   43 1
    20    7    8 1
    21    7   44 1
    22    7   45 1
    23    8    9 1
    24    8   46 1
    25    8   47 1
    26    9   10 1
    27    9   48 1
    28    9   49 1
    29   10   11 1
    30   10   50 1
    31   10   51 1
    32   11   12 1
    33   11   52 1
    34   11   53 1
    35   12   13 1
    36   12   54 1
    37   12   55 1
    38   13   14 1
    39   13   56 1
    40   13   57 1
    41   14   15 1
    42   14   58 1
    43   14   59 1
    44   15   16 1
    45   15   60 1
    46   15   61 1
    47   16   17 1
    48   16   62 1
    49   16   63 1
    50   17   18 1
    51   17   64 1
    52   17   65 1
    53   18   19 1
    54   18   66 1
    55   18   67 1
    56   19   20 am
    57   19   68 1
    58   20   21 2
    59   20   22 am
    60   22   23 1
    61   22   69 1
    62   23   28 ar
    63   23   24 ar
    64   24   25 ar
    65   24   30 1
    66   25   26 ar
    67   25   70 1
    68   26   27 ar
    69   26   71 1
    70   27   28 ar
    71   27   72 1
    72   28   29 1
    73   29   73 1
    74   29   74 1
    75   29   75 1
    76   30   76 1
    77   30   77 1
    78   30   78 1
@<TRIPOS>MOLECULE
ZINC13755447
   53    56     0     0     0
SMALL
USER_CHARGES
2-(5,5-diethyl-1,3-dioxan-2-yl)-4,5-diphenyl-1H-imidazole
@<TRIPOS>ATOM
      1 C1         -2.3512   10.4369   -2.3207 C.3       1 <0>        -0.1643
      2 C2         -2.9143   10.0357   -0.9559 C.3       1 <0>        -0.1137
      3 C3         -2.3088    8.6974   -0.5277 C.3       1 <0>        -0.1276
      4 C4         -2.6604    7.6209   -1.5604 C.3       1 <0>         0.0629
      5 O1         -1.9800    6.4095   -1.2186 O.3       1 <0>        -0.3612
      6 C5         -0.5586    6.5467   -1.1492 C.3       1 <0>         0.3415
      7 O2         -0.2226    7.5382   -0.1755 O.3       1 <0>        -0.3941
      8 C6         -0.7838    8.8263   -0.4466 C.3       1 <0>         0.0661
      9 C7          0.0548    5.2278   -0.7554 C.2       1 <0>         0.2226
     10 N1          1.2026    5.0791   -0.0584 N.pl3     1 <0>        -0.5396
     11 H1          1.7898    5.8147    0.2794 H         1 <0>         0.4328
     12 C8          1.4145    3.7293    0.1009 C.2       1 <0>         0.0404
     13 C9          0.3606    3.0964   -0.5323 C.2       1 <0>         0.0620
     14 N2         -0.4408    4.0547   -1.0343 N.2       1 <0>        -0.4374
     15 C10         0.1491    1.6337   -0.6341 C.ar      1 <0>        -0.0049
     16 C11        -1.1426    1.1089   -0.5979 C.ar      1 <0>        -0.0908
     17 C12        -1.3333   -0.2544   -0.6936 C.ar      1 <0>        -0.1216
     18 C13        -0.2464   -1.1001   -0.8258 C.ar      1 <0>        -0.1168
     19 C14         1.0373   -0.5855   -0.8619 C.ar      1 <0>        -0.1204
     20 C15         1.2408    0.7759   -0.7666 C.ar      1 <0>        -0.1006
     21 C16         2.5425    3.0855    0.8037 C.ar      1 <0>        -0.0218
     22 C17         2.3079    2.0289    1.6862 C.ar      1 <0>        -0.0851
     23 C18         3.3669    1.4277    2.3342 C.ar      1 <0>        -0.1148
     24 C19         4.6580    1.8777    2.1212 C.ar      1 <0>        -0.1111
     25 C20         4.8970    2.9282    1.2529 C.ar      1 <0>        -0.1170
     26 C21         3.8481    3.5342    0.5932 C.ar      1 <0>        -0.1101
     27 C22        -2.8629    8.2955    0.8406 C.3       1 <0>        -0.1057
     28 C23        -2.6247    9.4290    1.8403 C.3       1 <0>        -0.1554
     29 H2         -2.6022    9.6726   -3.0562 H         1 <0>         0.0581
     30 H3         -2.7825   11.3903   -2.6257 H         1 <0>         0.0603
     31 H4         -1.2676   10.5335   -2.2526 H         1 <0>         0.0565
     32 H5         -3.9979    9.9391   -1.0240 H         1 <0>         0.0714
     33 H6         -2.6632   10.8000   -0.2204 H         1 <0>         0.0742
     34 H7         -2.3459    7.9491   -2.5511 H         1 <0>         0.0622
     35 H8         -3.7367    7.4487   -1.5559 H         1 <0>         0.1058
     36 H9         -0.1748    6.8495   -2.1234 H         1 <0>         0.0803
     37 H10        -0.3982    9.2001   -1.3951 H         1 <0>         0.0628
     38 H11        -0.5181    9.5175    0.3532 H         1 <0>         0.1070
     39 H12        -1.9921    1.7685   -0.4996 H         1 <0>         0.1269
     40 H13        -2.3330   -0.6620   -0.6657 H         1 <0>         0.1237
     41 H14        -0.4007   -2.1664   -0.9007 H         1 <0>         0.1216
     42 H15         1.8819   -1.2507   -0.9645 H         1 <0>         0.1229
     43 H16         2.2434    1.1765   -0.7945 H         1 <0>         0.1216
     44 H17         1.3003    1.6798    1.8569 H         1 <0>         0.1272
     45 H18         3.1875    0.6073    3.0132 H         1 <0>         0.1281
     46 H19         5.4830    1.4066    2.6349 H         1 <0>         0.1254
     47 H20         5.9072    3.2743    1.0911 H         1 <0>         0.1261
     48 H21         4.0361    4.3536   -0.0848 H         1 <0>         0.1199
     49 H22        -3.9325    8.1033    0.7574 H         1 <0>         0.0648
     50 H23        -2.3576    7.3938    1.1866 H         1 <0>         0.0720
     51 H24        -2.9513    9.1141    2.8313 H         1 <0>         0.0554
     52 H25        -1.5624    9.6719    1.8679 H         1 <0>         0.0544
     53 H26        -3.1906   10.3087    1.5337 H         1 <0>         0.0569
@<TRIPOS>BOND
     1    1    2 1
     2    1   29 1
     3    1   30 1
     4    1   31 1
     5    2    3 1
     6    2   32 1
     7    2   33 1
     8    3    8 1
     9    3    4 1
    10    3   27 1
    11    4    5 1
    12    4   34 1
    13    4   35 1
    14    5    6 1
    15    6    7 1
    16    6    9 1
    17    6   36 1
    18    7    8 1
    19    8   37 1
    20    8   38 1
    21    9   14 2
    22    9   10 1
    23   10   11 1
    24   10   12 1
    25   12   13 2
    26   12   21 1
    27   13   14 1
    28   13   15 1
    29   15   20 ar
    30   15   16 ar
    31   16   17 ar
    32   16   39 1
    33   17   18 ar
    34   17   40 1
    35   18   19 ar
    36   18   41 1
    37   19   20 ar
    38   19   42 1
    39   20   43 1
    40   21   26 ar
    41   21   22 ar
    42   22   23 ar
    43   22   44 1
    44   23   24 ar
    45   23   45 1
    46   24   25 ar
    47   24   46 1
    48   25   26 ar
    49   25   47 1
    50   26   48 1
    51   27   28 1
    52   27   49 1
    53   27   50 1
    54   28   51 1
    55   28   52 1
    56   28   53 1
@<TRIPOS>MOLECULE
ZINC13755447
   54    57     0     0     0
SMALL
USER_CHARGES
2-(5,5-diethyl-1,3-dioxan-2-yl)-4,5-diphenyl-1H-imidazole
@<TRIPOS>ATOM
      1 C1         -2.3512   10.4369   -2.3207 C.3       1 <0>        -0.1665
      2 C2         -2.9143   10.0357   -0.9559 C.3       1 <0>        -0.1172
      3 C3         -2.3088    8.6974   -0.5277 C.3       1 <0>        -0.1282
      4 C4         -2.6604    7.6209   -1.5604 C.3       1 <0>         0.0674
      5 O1         -1.9800    6.4095   -1.2186 O.3       1 <0>        -0.3886
      6 C5         -0.5586    6.5467   -1.1492 C.3       1 <0>         0.3089
      7 O2         -0.2226    7.5382   -0.1755 O.3       1 <0>        -0.3852
      8 C6         -0.7838    8.8263   -0.4466 C.3       1 <0>         0.0641
      9 C7          0.0548    5.2278   -0.7554 C.cat     1 <0>         0.3245
     10 N1          1.2026    5.0791   -0.0584 N.pl3     1 <0>        -0.4831
     11 H1          1.7898    5.8147    0.2794 H         1 <0>         0.4758
     12 C8          1.4145    3.7293    0.1009 C.2       1 <0>         0.1296
     13 C9          0.3606    3.0964   -0.5323 C.2       1 <0>         0.1028
     14 C10         0.1491    1.6337   -0.6341 C.ar      1 <0>        -0.0676
     15 C11        -1.1426    1.1089   -0.5979 C.ar      1 <0>        -0.0946
     16 C12        -1.3333   -0.2544   -0.6936 C.ar      1 <0>        -0.1115
     17 C13        -0.2464   -1.1001   -0.8258 C.ar      1 <0>        -0.0830
     18 C14         1.0373   -0.5855   -0.8619 C.ar      1 <0>        -0.1111
     19 C15         1.2408    0.7759   -0.7666 C.ar      1 <0>        -0.0747
     20 C16         2.5425    3.0855    0.8037 C.ar      1 <0>        -0.0735
     21 C17         2.3079    2.0289    1.6862 C.ar      1 <0>        -0.0703
     22 C18         3.3669    1.4277    2.3342 C.ar      1 <0>        -0.1124
     23 C19         4.6580    1.8777    2.1212 C.ar      1 <0>        -0.0807
     24 C20         4.8970    2.9282    1.2529 C.ar      1 <0>        -0.1134
     25 C21         3.8481    3.5342    0.5932 C.ar      1 <0>        -0.0898
     26 C22        -2.8629    8.2955    0.8406 C.3       1 <0>        -0.1064
     27 C23        -2.6247    9.4290    1.8403 C.3       1 <0>        -0.1597
     28 H2         -2.6022    9.6726   -3.0562 H         1 <0>         0.0570
     29 H3         -2.7825   11.3903   -2.6257 H         1 <0>         0.0672
     30 H4         -1.2676   10.5335   -2.2526 H         1 <0>         0.0572
     31 H5         -3.9979    9.9391   -1.0240 H         1 <0>         0.0772
     32 H6         -2.6632   10.8000   -0.2204 H         1 <0>         0.0811
     33 H7         -2.3459    7.9491   -2.5511 H         1 <0>         0.0764
     34 H8         -3.7367    7.4487   -1.5559 H         1 <0>         0.1208
     35 H9         -0.1748    6.8495   -2.1234 H         1 <0>         0.1177
     36 H10        -0.3982    9.2001   -1.3951 H         1 <0>         0.0755
     37 H11        -0.5181    9.5175    0.3532 H         1 <0>         0.1225
     38 H12        -1.9921    1.7685   -0.4996 H         1 <0>         0.1260
     39 H13        -2.3330   -0.6620   -0.6657 H         1 <0>         0.1377
     40 H14        -0.4007   -2.1664   -0.9007 H         1 <0>         0.1369
     41 H15         1.8819   -1.2507   -0.9645 H         1 <0>         0.1383
     42 H16         2.2434    1.1765   -0.7945 H         1 <0>         0.1333
     43 H17         1.3003    1.6798    1.8569 H         1 <0>         0.1326
     44 H18         3.1875    0.6073    3.0132 H         1 <0>         0.1390
     45 H19         5.4830    1.4066    2.6349 H         1 <0>         0.1372
     46 H20         5.9072    3.2743    1.0911 H         1 <0>         0.1381
     47 H21         4.0361    4.3536   -0.0848 H         1 <0>         0.1274
     48 H22        -3.9325    8.1033    0.7574 H         1 <0>         0.0698
     49 H23        -2.3576    7.3938    1.1866 H         1 <0>         0.0670
     50 H24        -2.9513    9.1141    2.8313 H         1 <0>         0.0601
     51 H25        -1.5624    9.6719    1.8679 H         1 <0>         0.0554
     52 H26        -3.1906   10.3087    1.5337 H         1 <0>         0.0622
     53 N2         -0.4412    4.0546   -1.0345 N.pl3     1 <0>        -0.4522
     54 H27        -1.3092    3.8873   -1.5567 H         1 <0>         0.4829
@<TRIPOS>BOND
     1    1    2 1
     2    1   28 1
     3    1   29 1
     4    1   30 1
     5    2    3 1
     6    2   31 1
     7    2   32 1
     8    3    8 1
     9    3    4 1
    10    3   26 1
    11    4    5 1
    12    4   33 1
    13    4   34 1
    14    5    6 1
    15    6    7 1
    16    6    9 1
    17    6   35 1
    18    7    8 1
    19    8   36 1
    20    8   37 1
    21    9   10 1
    22    9   53 2
    23   10   11 1
    24   10   12 1
    25   12   13 2
    26   12   20 1
    27   13   14 1
    28   13   53 1
    29   14   19 ar
    30   14   15 ar
    31   15   16 ar
    32   15   38 1
    33   16   17 ar
    34   16   39 1
    35   17   18 ar
    36   17   40 1
    37   18   19 ar
    38   18   41 1
    39   19   42 1
    40   20   25 ar
    41   20   21 ar
    42   21   22 ar
    43   21   43 1
    44   22   23 ar
    45   22   44 1
    46   23   24 ar
    47   23   45 1
    48   24   25 ar
    49   24   46 1
    50   25   47 1
    51   26   27 1
    52   26   48 1
    53   26   49 1
    54   27   50 1
    55   27   51 1
    56   27   52 1
    57   53   54 1
@<TRIPOS>MOLECULE
ZINC02516907
   51    52     0     0     0
SMALL
USER_CHARGES
[1-(5,8-dihydroxy-1,4-dioxo-2-naphthyl)-4-methyl-pent-3-enyl] 3-methylbutanoate
@<TRIPOS>ATOM
      1 C1          9.3183    5.7555   -2.1329 C.3       1 <0>        -0.1578
      2 C2          8.4320    5.1246   -3.2088 C.3       1 <0>        -0.0844
      3 C3          9.2938    4.7196   -4.4064 C.3       1 <0>        -0.1488
      4 C4          7.7390    3.8862   -2.6370 C.3       1 <0>        -0.1113
      5 C5          6.7964    4.3011   -1.5368 C.2       1 <0>         0.4590
      6 O1          6.6899    5.4675   -1.2404 O.2       1 <0>        -0.4917
      7 O2          6.0752    3.3747   -0.8861 O.3       1 <0>        -0.3396
      8 C6          5.1880    3.8465    0.1620 C.3       1 <0>         0.1412
      9 H1          4.8474    4.8540   -0.0765 H         1 <0>         0.1044
     10 C7          5.9378    3.8639    1.4955 C.3       1 <0>        -0.1104
     11 C8          7.0528    4.8757    1.4316 C.2       1 <0>        -0.1599
     12 C9          7.0953    5.8590    2.2961 C.2       1 <0>        -0.1239
     13 C10         6.1021    5.9103    3.4284 C.3       1 <0>        -0.1212
     14 C11         8.1373    6.9390    2.1583 C.3       1 <0>        -0.1145
     15 C12         3.9993    2.9259    0.2661 C.2       1 <0>        -0.1139
     16 C13         2.7617    3.4309    0.1697 C.2       1 <0>        -0.1241
     17 C14         1.5781    2.5577    0.2677 C.2       1 <0>         0.4166
     18 O3          0.4615    3.0307    0.1780 O.2       1 <0>        -0.4011
     19 C15         1.7532    1.1096    0.4744 C.ar      1 <0>        -0.1467
     20 C16         0.6498    0.2606    0.5703 C.ar      1 <0>         0.1583
     21 C17         0.8438   -1.1099    0.7660 C.ar      1 <0>        -0.1090
     22 C18         2.1131   -1.6277    0.8653 C.ar      1 <0>        -0.1072
     23 C19         3.2298   -0.7921    0.7716 C.ar      1 <0>         0.1577
     24 C20         3.0549    0.5785    0.5758 C.ar      1 <0>        -0.1408
     25 C21         4.2137    1.4823    0.4740 C.2       1 <0>         0.4214
     26 O4          5.3428    1.0391    0.5598 O.2       1 <0>        -0.3852
     27 O5          4.4777   -1.3111    0.8711 O.3       1 <0>        -0.4743
     28 O6         -0.6051    0.7621    0.4684 O.3       1 <0>        -0.4748
     29 H2          8.7044    6.0441   -1.2797 H         1 <0>         0.0718
     30 H3         10.0699    5.0341   -1.8123 H         1 <0>         0.0510
     31 H4          9.8120    6.6378   -2.5403 H         1 <0>         0.0568
     32 H5          7.6805    5.8461   -3.5294 H         1 <0>         0.0800
     33 H6          8.6624    4.2701   -5.1729 H         1 <0>         0.0569
     34 H7          9.7875    5.6018   -4.8138 H         1 <0>         0.0617
     35 H8         10.0453    3.9982   -4.0858 H         1 <0>         0.0577
     36 H9          8.4880    3.2036   -2.2356 H         1 <0>         0.1063
     37 H10         7.1781    3.3865   -3.4268 H         1 <0>         0.1049
     38 H11         5.2489    4.1325    2.2963 H         1 <0>         0.0893
     39 H12         6.3546    2.8758    1.6909 H         1 <0>         0.0933
     40 H13         7.8169    4.7901    0.6732 H         1 <0>         0.1072
     41 H14         6.1409    4.9760    3.9883 H         1 <0>         0.0658
     42 H15         6.3480    6.7409    4.0900 H         1 <0>         0.0625
     43 H16         5.0990    6.0512    3.0257 H         1 <0>         0.0652
     44 H17         8.7604    6.7338    1.2878 H         1 <0>         0.0601
     45 H18         7.6462    7.9041    2.0342 H         1 <0>         0.0671
     46 H19         8.7592    6.9602    3.0533 H         1 <0>         0.0628
     47 H20         2.6296    4.4921    0.0184 H         1 <0>         0.1582
     48 H21        -0.0103   -1.7667    0.8401 H         1 <0>         0.1504
     49 H22         2.2487   -2.6885    1.0164 H         1 <0>         0.1505
     50 H23         4.8585   -1.5846    0.0253 H         1 <0>         0.4015
     51 H24        -0.9916    1.0294    1.3135 H         1 <0>         0.4014
@<TRIPOS>BOND
     1    1    2 1
     2    1   29 1
     3    1   30 1
     4    1   31 1
     5    2    3 1
     6    2    4 1
     7    2   32 1
     8    3   33 1
     9    3   34 1
    10    3   35 1
    11    4    5 1
    12    4   36 1
    13    4   37 1
    14    5    6 2
    15    5    7 1
    16    7    8 1
    17    8    9 1
    18    8   10 1
    19    8   15 1
    20   10   11 1
    21   10   38 1
    22   10   39 1
    23   11   12 2
    24   11   40 1
    25   12   13 1
    26   12   14 1
    27   13   41 1
    28   13   42 1
    29   13   43 1
    30   14   44 1
    31   14   45 1
    32   14   46 1
    33   15   25 1
    34   15   16 2
    35   16   17 1
    36   16   47 1
    37   17   18 2
    38   17   19 1
    39   19   24 ar
    40   19   20 ar
    41   20   21 ar
    42   20   28 1
    43   21   22 ar
    44   21   48 1
    45   22   23 ar
    46   22   49 1
    47   23   24 ar
    48   23   27 1
    49   24   25 1
    50   25   26 2
    51   27   50 1
    52   28   51 1
@<TRIPOS>MOLECULE
ZINC02171964
   48    48     0     0     0
SMALL
USER_CHARGES
1-butyl-3-(2,6-diisopropylphenyl)-urea
@<TRIPOS>ATOM
      1 C1          4.6076   -1.0420    6.7044 C.3       1 <0>        -0.1533
      2 C2          3.8057   -0.1645    5.7411 C.3       1 <0>        -0.1218
      3 C3          2.4523   -0.8205    5.4601 C.3       1 <0>        -0.1320
      4 C4          1.6505    0.0569    4.4968 C.3       1 <0>         0.1373
      5 N1          0.3546   -0.5713    4.2277 N.am      1 <0>        -0.7454
      6 C5         -0.5253    0.0267    3.4003 C.2       1 <0>         0.7027
      7 O1         -0.2436    1.0875    2.8771 O.2       1 <0>        -0.5641
      8 N2         -1.7175   -0.5512    3.1527 N.am      1 <0>        -0.6916
      9 C6         -2.6059    0.0380    2.2460 C.ar      1 <0>         0.1593
     10 C7         -3.9070    0.3278    2.6352 C.ar      1 <0>        -0.0850
     11 C8         -4.7812    0.9097    1.7382 C.ar      1 <0>        -0.1095
     12 C9         -4.3620    1.2038    0.4537 C.ar      1 <0>        -0.1192
     13 C10        -3.0655    0.9212    0.0646 C.ar      1 <0>        -0.1097
     14 C11        -2.1880    0.3346    0.9553 C.ar      1 <0>        -0.0586
     15 C12        -0.7767    0.0223    0.5289 C.3       1 <0>        -0.0538
     16 C13        -0.7954   -1.0931   -0.5183 C.3       1 <0>        -0.1443
     17 C14        -0.1364    1.2752   -0.0718 C.3       1 <0>        -0.1349
     18 C15        -4.3645    0.0081    4.0351 C.3       1 <0>        -0.0546
     19 C16        -4.8694    1.2847    4.7106 C.3       1 <0>        -0.1429
     20 C17        -5.4952   -1.0210    3.9796 C.3       1 <0>        -0.1445
     21 H1          4.0569   -1.1534    7.6384 H         1 <0>         0.0545
     22 H2          4.7654   -2.0231    6.2564 H         1 <0>         0.0545
     23 H3          5.5717   -0.5746    6.9046 H         1 <0>         0.0569
     24 H4          4.3564   -0.0531    4.8071 H         1 <0>         0.0659
     25 H5          3.6478    0.8166    6.1891 H         1 <0>         0.0658
     26 H6          1.9016   -0.9319    6.3941 H         1 <0>         0.0690
     27 H7          2.6102   -1.8016    5.0121 H         1 <0>         0.0691
     28 H8          2.2012    0.1683    3.5627 H         1 <0>         0.0676
     29 H9          1.4926    1.0380    4.9447 H         1 <0>         0.0674
     30 H10         0.1299   -1.4175    4.6450 H         1 <0>         0.3963
     31 H11        -1.9597   -1.3755    3.6030 H         1 <0>         0.4029
     32 H12        -5.7931    1.1356    2.0404 H         1 <0>         0.1238
     33 H13        -5.0475    1.6588   -0.2459 H         1 <0>         0.1231
     34 H14        -2.7399    1.1559   -0.9380 H         1 <0>         0.1238
     35 H15        -0.1989   -0.3017    1.3945 H         1 <0>         0.0816
     36 H16        -1.2515   -1.9857   -0.0903 H         1 <0>         0.0506
     37 H17         0.2254   -1.3190   -0.8267 H         1 <0>         0.0556
     38 H18        -1.3732   -0.7691   -1.3839 H         1 <0>         0.0554
     39 H19        -0.7142    1.5992   -0.9374 H         1 <0>         0.0487
     40 H20        -0.1231    2.0698    0.6742 H         1 <0>         0.0665
     41 H21         0.8844    1.0494   -0.3803 H         1 <0>         0.0500
     42 H22        -3.5300   -0.3993    4.6059 H         1 <0>         0.0732
     43 H23        -4.0638    2.0179    4.7502 H         1 <0>         0.0553
     44 H24        -5.7038    1.6921    4.1398 H         1 <0>         0.0583
     45 H25        -5.2003    1.0534    5.7231 H         1 <0>         0.0577
     46 H26        -5.1355   -1.9305    3.4983 H         1 <0>         0.0546
     47 H27        -5.8261   -1.2523    4.9921 H         1 <0>         0.0585
     48 H28        -6.3297   -0.6136    3.4088 H         1 <0>         0.0588
@<TRIPOS>BOND
     1    1    2 1
     2    1   21 1
     3    1   22 1
     4    1   23 1
     5    2    3 1
     6    2   24 1
     7    2   25 1
     8    3    4 1
     9    3   26 1
    10    3   27 1
    11    4    5 1
    12    4   28 1
    13    4   29 1
    14    5    6 am
    15    5   30 1
    16    6    7 2
    17    6    8 am
    18    8    9 1
    19    8   31 1
    20    9   14 ar
    21    9   10 ar
    22   10   11 ar
    23   10   18 1
    24   11   12 ar
    25   11   32 1
    26   12   13 ar
    27   12   33 1
    28   13   14 ar
    29   13   34 1
    30   14   15 1
    31   15   16 1
    32   15   17 1
    33   15   35 1
    34   16   36 1
    35   16   37 1
    36   16   38 1
    37   17   39 1
    38   17   40 1
    39   17   41 1
    40   18   19 1
    41   18   20 1
    42   18   42 1
    43   19   43 1
    44   19   44 1
    45   19   45 1
    46   20   46 1
    47   20   47 1
    48   20   48 1
@<TRIPOS>MOLECULE
ZINC13827852
   54    54     0     0     0
SMALL
USER_CHARGES
3-(2,6-diisopropylphenyl)-1-hexyl-urea
@<TRIPOS>ATOM
      1 C1         -9.1205   -4.5263    0.1916 C.3       1 <0>        -0.1545
      2 C2         -7.7310   -4.0681    0.6393 C.3       1 <0>        -0.1265
      3 C3         -7.5772   -2.5697    0.3713 C.3       1 <0>        -0.1196
      4 C4         -6.1878   -2.1115    0.8190 C.3       1 <0>        -0.1175
      5 C5         -6.0339   -0.6131    0.5509 C.3       1 <0>        -0.1314
      6 C6         -4.6445   -0.1549    0.9986 C.3       1 <0>         0.1378
      7 N1         -4.4971    1.2799    0.7419 N.am      1 <0>        -0.7454
      8 C7         -3.3466    1.9065    1.0584 C.2       1 <0>         0.7028
      9 O1         -2.4309    1.2809    1.5569 O.2       1 <0>        -0.5641
     10 N2         -3.2111    3.2264    0.8222 N.am      1 <0>        -0.6916
     11 C8         -1.9955    3.8646    1.0934 C.ar      1 <0>         0.1594
     12 C9         -1.9652    4.9837    1.9149 C.ar      1 <0>        -0.0851
     13 C10        -0.7638    5.6110    2.1809 C.ar      1 <0>        -0.1094
     14 C11         0.4081    5.1257    1.6301 C.ar      1 <0>        -0.1192
     15 C12         0.3819    4.0084    0.8158 C.ar      1 <0>        -0.1096
     16 C13        -0.8169    3.3797    0.5417 C.ar      1 <0>        -0.0586
     17 C14        -0.8451    2.1652   -0.3500 C.3       1 <0>        -0.0538
     18 C15        -0.4867    2.5741   -1.7801 C.3       1 <0>        -0.1442
     19 C16         0.1690    1.1374    0.1559 C.3       1 <0>        -0.1349
     20 C17        -3.2418    5.5130    2.5160 C.3       1 <0>        -0.0545
     21 C18        -3.1136    5.5430    4.0404 C.3       1 <0>        -0.1429
     22 C19        -3.5007    6.9291    1.9980 C.3       1 <0>        -0.1445
     23 H1         -9.2301   -5.5938    0.3826 H         1 <0>         0.0541
     24 H2         -9.8807   -3.9778    0.7478 H         1 <0>         0.0534
     25 H3         -9.2406   -4.3337   -0.8745 H         1 <0>         0.0534
     26 H4         -6.9709   -4.6167    0.0831 H         1 <0>         0.0615
     27 H5         -7.6110   -4.2607    1.7054 H         1 <0>         0.0615
     28 H6         -8.3374   -2.0211    0.9274 H         1 <0>         0.0618
     29 H7         -7.6973   -2.3771   -0.6949 H         1 <0>         0.0619
     30 H8         -5.4276   -2.6600    0.2628 H         1 <0>         0.0662
     31 H9         -6.0677   -2.3041    1.8851 H         1 <0>         0.0661
     32 H10        -6.7941   -0.0645    1.1071 H         1 <0>         0.0690
     33 H11        -6.1540   -0.4205   -0.5152 H         1 <0>         0.0691
     34 H12        -3.8843   -0.7034    0.4424 H         1 <0>         0.0674
     35 H13        -4.5244   -0.3475    2.0647 H         1 <0>         0.0673
     36 H14        -5.2277    1.7790    0.3442 H         1 <0>         0.3963
     37 H15        -3.9561    3.7341    0.4644 H         1 <0>         0.4028
     38 H16        -0.7395    6.4812    2.8201 H         1 <0>         0.1238
     39 H17         1.3462    5.6180    1.8396 H         1 <0>         0.1231
     40 H18         1.2994    3.6294    0.3904 H         1 <0>         0.1238
     41 H19        -1.8434    1.7277   -0.3365 H         1 <0>         0.0817
     42 H20        -0.5072    1.6956   -2.4251 H         1 <0>         0.0556
     43 H21         0.5115    3.0116   -1.7936 H         1 <0>         0.0554
     44 H22        -1.2092    3.3063   -2.1405 H         1 <0>         0.0506
     45 H23         0.1486    0.2589   -0.4890 H         1 <0>         0.0500
     46 H24         1.1673    1.5749    0.1425 H         1 <0>         0.0487
     47 H25        -0.0863    0.8461    1.1748 H         1 <0>         0.0665
     48 H26        -4.0719    4.8654    2.2339 H         1 <0>         0.0732
     49 H27        -2.2834    6.1905    4.3225 H         1 <0>         0.0583
     50 H28        -4.0369    5.9258    4.4752 H         1 <0>         0.0577
     51 H29        -2.9291    4.5341    4.4094 H         1 <0>         0.0553
     52 H30        -2.6705    7.5766    2.2802 H         1 <0>         0.0588
     53 H31        -3.5920    6.9077    0.9121 H         1 <0>         0.0546
     54 H32        -4.4240    7.3119    2.4328 H         1 <0>         0.0585
@<TRIPOS>BOND
     1    1    2 1
     2    1   23 1
     3    1   24 1
     4    1   25 1
     5    2    3 1
     6    2   26 1
     7    2   27 1
     8    3    4 1
     9    3   28 1
    10    3   29 1
    11    4    5 1
    12    4   30 1
    13    4   31 1
    14    5    6 1
    15    5   32 1
    16    5   33 1
    17    6    7 1
    18    6   34 1
    19    6   35 1
    20    7    8 am
    21    7   36 1
    22    8    9 2
    23    8   10 am
    24   10   11 1
    25   10   37 1
    26   11   16 ar
    27   11   12 ar
    28   12   13 ar
    29   12   20 1
    30   13   14 ar
    31   13   38 1
    32   14   15 ar
    33   14   39 1
    34   15   16 ar
    35   15   40 1
    36   16   17 1
    37   17   18 1
    38   17   19 1
    39   17   41 1
    40   18   42 1
    41   18   43 1
    42   18   44 1
    43   19   45 1
    44   19   46 1
    45   19   47 1
    46   20   21 1
    47   20   22 1
    48   20   48 1
    49   21   49 1
    50   21   50 1
    51   21   51 1
    52   22   52 1
    53   22   53 1
    54   22   54 1
@<TRIPOS>MOLECULE
ZINC00409652
   55    56     0     0     0
SMALL
USER_CHARGES
3-(2,6-diisopropylphenyl)-1-(4-isopropylphenyl)-urea
@<TRIPOS>ATOM
      1 C1         -0.2913   -0.5320   -5.0101 C.3       1 <0>        -0.1450
      2 C2          0.2978   -0.8910   -3.6445 C.3       1 <0>        -0.0559
      3 C3          1.6605   -1.5595   -3.8367 C.3       1 <0>        -0.1454
      4 C4          0.4643    0.3621   -2.8242 C.ar      1 <0>        -0.0896
      5 C5         -0.1957    0.4884   -1.6156 C.ar      1 <0>        -0.0998
      6 C6         -0.0449    1.6354   -0.8612 C.ar      1 <0>        -0.1428
      7 C7          0.7708    2.6625   -1.3176 C.ar      1 <0>         0.1560
      8 C8          1.4326    2.5325   -2.5314 C.ar      1 <0>        -0.1136
      9 C9          1.2772    1.3831   -3.2813 C.ar      1 <0>        -0.0962
     10 N1          0.9254    3.8262   -0.5558 N.am      1 <0>        -0.6849
     11 C10         2.1124    4.4641   -0.5333 C.2       1 <0>         0.7039
     12 O1          3.0231    4.0790   -1.2410 O.2       1 <0>        -0.5472
     13 N2          2.2900    5.5289    0.2736 N.am      1 <0>        -0.6874
     14 C11         3.4929    6.2429    0.2353 C.ar      1 <0>         0.1524
     15 C12         4.6930    5.5993    0.5073 C.ar      1 <0>        -0.0529
     16 C13         5.8791    6.3056    0.4631 C.ar      1 <0>        -0.1115
     17 C14         5.8713    7.6546    0.1596 C.ar      1 <0>        -0.1141
     18 C15         4.6773    8.2997   -0.1061 C.ar      1 <0>        -0.1116
     19 C16         3.4884    7.5978   -0.0691 C.ar      1 <0>        -0.0793
     20 C17         2.1877    8.3017   -0.3584 C.3       1 <0>        -0.0551
     21 C18         1.9823    9.4302    0.6542 C.3       1 <0>        -0.1448
     22 C19         2.2272    8.8858   -1.7720 C.3       1 <0>        -0.1428
     23 C20         4.7017    4.1306    0.8448 C.3       1 <0>        -0.0511
     24 C21         5.6751    3.4001   -0.0824 C.3       1 <0>        -0.1353
     25 C22         5.1437    3.9438    2.2976 C.3       1 <0>        -0.1446
     26 H1          0.3802    0.1538   -5.5266 H         1 <0>         0.0567
     27 H2         -0.4118   -1.4384   -5.6035 H         1 <0>         0.0580
     28 H3         -1.2622   -0.0558   -4.8732 H         1 <0>         0.0556
     29 H4         -0.3737   -1.5768   -3.1280 H         1 <0>         0.0766
     30 H5          2.3321   -0.8737   -4.3532 H         1 <0>         0.0569
     31 H6          2.0803   -1.8153   -2.8638 H         1 <0>         0.0557
     32 H7          1.5401   -2.4659   -4.4301 H         1 <0>         0.0579
     33 H8         -0.8296   -0.3109   -1.2611 H         1 <0>         0.1246
     34 H9         -0.5641    1.7353    0.0804 H         1 <0>         0.1234
     35 H10         2.0682    3.3292   -2.8887 H         1 <0>         0.1399
     36 H11         1.7914    1.2815   -4.2256 H         1 <0>         0.1233
     37 H12         0.1783    4.1736   -0.0440 H         1 <0>         0.4063
     38 H13         1.5839    5.8004    0.8808 H         1 <0>         0.4043
     39 H14         6.8132    5.8046    0.6702 H         1 <0>         0.1245
     40 H15         6.7996    8.2058    0.1304 H         1 <0>         0.1239
     41 H16         4.6745    9.3535   -0.3425 H         1 <0>         0.1246
     42 H17         1.3650    7.5907   -0.2819 H         1 <0>         0.0732
     43 H18         2.8049   10.1411    0.5777 H         1 <0>         0.0591
     44 H19         1.0415    9.9393    0.4450 H         1 <0>         0.0589
     45 H20         1.9541    9.0141    1.6612 H         1 <0>         0.0551
     46 H21         3.0499    9.5967   -1.8484 H         1 <0>         0.0585
     47 H22         2.3735    8.0818   -2.4933 H         1 <0>         0.0550
     48 H23         1.2864    9.3949   -1.9812 H         1 <0>         0.0583
     49 H24         3.6996    3.7219    0.7144 H         1 <0>         0.0787
     50 H25         6.6771    3.8088    0.0480 H         1 <0>         0.0488
     51 H26         5.6814    2.3378    0.1617 H         1 <0>         0.0504
     52 H27         5.3602    3.5332   -1.1174 H         1 <0>         0.0673
     53 H28         6.1457    4.3525    2.4280 H         1 <0>         0.0559
     54 H29         4.4502    4.4643    2.9581 H         1 <0>         0.0509
     55 H30         5.1500    2.8815    2.5417 H         1 <0>         0.0562
@<TRIPOS>BOND
     1    1    2 1
     2    1   26 1
     3    1   27 1
     4    1   28 1
     5    2    3 1
     6    2    4 1
     7    2   29 1
     8    3   30 1
     9    3   31 1
    10    3   32 1
    11    4    9 ar
    12    4    5 ar
    13    5    6 ar
    14    5   33 1
    15    6    7 ar
    16    6   34 1
    17    7    8 ar
    18    7   10 1
    19    8    9 ar
    20    8   35 1
    21    9   36 1
    22   10   11 am
    23   10   37 1
    24   11   12 2
    25   11   13 am
    26   13   14 1
    27   13   38 1
    28   14   19 ar
    29   14   15 ar
    30   15   16 ar
    31   15   23 1
    32   16   17 ar
    33   16   39 1
    34   17   18 ar
    35   17   40 1
    36   18   19 ar
    37   18   41 1
    38   19   20 1
    39   20   21 1
    40   20   22 1
    41   20   42 1
    42   21   43 1
    43   21   44 1
    44   21   45 1
    45   22   46 1
    46   22   47 1
    47   22   48 1
    48   23   24 1
    49   23   25 1
    50   23   49 1
    51   24   50 1
    52   24   51 1
    53   24   52 1
    54   25   53 1
    55   25   54 1
    56   25   55 1
@<TRIPOS>MOLECULE
ZINC00122408
   46    47     0     0     0
SMALL
USER_CHARGES
1-(2,6-diisopropylphenyl)-3-phenyl-urea
@<TRIPOS>ATOM
      1 C1         -0.7339    5.3443   -0.7708 C.3       1 <0>        -0.1355
      2 C2         -0.3204    4.0272   -1.4303 C.3       1 <0>        -0.0518
      3 C3         -0.1172    4.2497   -2.9304 C.3       1 <0>        -0.1446
      4 C4          0.9666    3.5401   -0.8159 C.ar      1 <0>        -0.0534
      5 C5          2.0636    4.3769   -0.7548 C.ar      1 <0>        -0.1115
      6 C6          3.2465    3.9289   -0.1960 C.ar      1 <0>        -0.1140
      7 C7          3.3338    2.6438    0.3072 C.ar      1 <0>        -0.1114
      8 C8          2.2390    1.8036    0.2531 C.ar      1 <0>        -0.0789
      9 C9          1.0495    2.2506   -0.3071 C.ar      1 <0>         0.1520
     10 N1         -0.0614    1.4016   -0.3639 N.am      1 <0>        -0.6869
     11 C10        -1.2156    1.7613    0.2319 C.2       1 <0>         0.7034
     12 O1         -1.3144    2.8538    0.7563 O.2       1 <0>        -0.5457
     13 N2         -2.2603    0.9098    0.2465 N.am      1 <0>        -0.6851
     14 C11        -3.4207    1.2383    0.9561 C.ar      1 <0>         0.1644
     15 C12        -3.3335    1.9765    2.1292 C.ar      1 <0>        -0.1191
     16 C13        -4.4812    2.3040    2.8242 C.ar      1 <0>        -0.0998
     17 C14        -5.7153    1.8879    2.3592 C.ar      1 <0>        -0.1363
     18 C15        -5.8050    1.1479    1.1946 C.ar      1 <0>        -0.0999
     19 C16        -4.6615    0.8220    0.4919 C.ar      1 <0>        -0.1483
     20 C17         2.3352    0.4030    0.8008 C.3       1 <0>        -0.0552
     21 C18         3.4269   -0.3637    0.0516 C.3       1 <0>        -0.1448
     22 C19         2.6826    0.4604    2.2897 C.3       1 <0>        -0.1428
     23 H1          0.0471    6.0889   -0.9252 H         1 <0>         0.0492
     24 H2         -1.6648    5.6967   -1.2152 H         1 <0>         0.0507
     25 H3         -0.8786    5.1858    0.2979 H         1 <0>         0.0669
     26 H4         -1.1014    3.2827   -1.2760 H         1 <0>         0.0787
     27 H5          0.1774    3.3113   -3.4003 H         1 <0>         0.0510
     28 H6         -1.0481    4.6020   -3.3748 H         1 <0>         0.0564
     29 H7          0.6637    4.9942   -3.0848 H         1 <0>         0.0560
     30 H8          1.9987    5.3810   -1.1470 H         1 <0>         0.1246
     31 H9          4.1041    4.5839   -0.1528 H         1 <0>         0.1240
     32 H10         4.2591    2.2967    0.7427 H         1 <0>         0.1247
     33 H11        -0.0020    0.5561   -0.8356 H         1 <0>         0.4045
     34 H12        -2.2077    0.0694   -0.2349 H         1 <0>         0.4067
     35 H13        -2.3696    2.2976    2.4954 H         1 <0>         0.1352
     36 H14        -4.4145    2.8818    3.7341 H         1 <0>         0.1250
     37 H15        -6.6109    2.1412    2.9071 H         1 <0>         0.1231
     38 H16        -6.7703    0.8247    0.8338 H         1 <0>         0.1261
     39 H17        -4.7322    0.2437   -0.4175 H         1 <0>         0.1240
     40 H18         1.3796   -0.1048    0.6700 H         1 <0>         0.0735
     41 H19         4.3825    0.1440    0.1824 H         1 <0>         0.0591
     42 H20         3.4966   -1.3768    0.4478 H         1 <0>         0.0590
     43 H21         3.1794   -0.4047   -1.0091 H         1 <0>         0.0551
     44 H22         2.7523   -0.5527    2.6859 H         1 <0>         0.0583
     45 H23         3.6382    0.9681    2.4206 H         1 <0>         0.0585
     46 H24         1.9049    1.0066    2.8235 H         1 <0>         0.0549
@<TRIPOS>BOND
     1    1    2 1
     2    1   23 1
     3    1   24 1
     4    1   25 1
     5    2    3 1
     6    2    4 1
     7    2   26 1
     8    3   27 1
     9    3   28 1
    10    3   29 1
    11    4    9 ar
    12    4    5 ar
    13    5    6 ar
    14    5   30 1
    15    6    7 ar
    16    6   31 1
    17    7    8 ar
    18    7   32 1
    19    8    9 ar
    20    8   20 1
    21    9   10 1
    22   10   11 am
    23   10   33 1
    24   11   12 2
    25   11   13 am
    26   13   14 1
    27   13   34 1
    28   14   19 ar
    29   14   15 ar
    30   15   16 ar
    31   15   35 1
    32   16   17 ar
    33   16   36 1
    34   17   18 ar
    35   17   37 1
    36   18   19 ar
    37   18   38 1
    38   19   39 1
    39   20   21 1
    40   20   22 1
    41   20   40 1
    42   21   41 1
    43   21   42 1
    44   21   43 1
    45   22   44 1
    46   22   45 1
    47   22   46 1
