@<TRIPOS>MOLECULE
ZINC09176388
   49    53     0     0     0
SMALL
USER_CHARGES

@<TRIPOS>ATOM
      1 C1         -0.0164    1.3569    0.0095 C.ar      1 <0>        -0.1135
      2 C2          1.1683    2.0910    0.0021 C.ar      1 <0>        -0.1170
      3 C3          2.3780    1.4678   -0.0132 C.ar      1 <0>        -0.1030
      4 C4          2.4370    0.0629   -0.0213 C.ar      1 <0>        -0.0527
      5 C5          3.6676   -0.6120   -0.0365 C.ar      1 <0>        -0.0759
      6 C6          3.6852   -1.9936   -0.0437 C.ar      1 <0>        -0.0096
      7 C7          2.4855   -2.7231   -0.0363 C.ar      1 <0>        -0.0969
      8 C8          1.2845   -2.0892   -0.0220 C.ar      1 <0>        -0.1022
      9 C9          1.2318   -0.6838   -0.0134 C.ar      1 <0>        -0.0474
     10 C10         0.0021   -0.0041    0.0020 C.ar      1 <0>        -0.1074
     11 C11         4.9834   -2.7127   -0.0598 C.2       1 <0>         0.0704
     12 C12         5.1603   -4.1084   -0.0743 C.2       1 <0>        -0.1248
     13 C13         6.5288   -4.3024   -0.0864 C.2       1 <0>        -0.0373
     14 N1          7.0960   -3.0589   -0.0790 N.pl3     1 <0>        -0.3749
     15 H1          8.0496   -2.8814   -0.0849 H         1 <0>         0.4451
     16 N2          6.1785   -2.1604   -0.0689 N.2       1 <0>        -0.2492
     17 C14         7.2354   -5.5928   -0.1039 C.2       1 <0>         0.6117
     18 O1          6.6033   -6.6325   -0.1089 O.2       1 <0>        -0.4727
     19 N3          8.5828   -5.6231   -0.1144 N.am      1 <0>        -0.5859
     20 N4          9.2556   -6.8519   -0.1310 N.2       1 <0>        -0.2008
     21 C15        10.5553   -6.8812   -0.1411 C.2       1 <0>         0.1135
     22 C16        11.2611   -8.1700   -0.1586 C.ar      1 <0>        -0.0932
     23 C17        12.7220   -8.2215   -0.1640 C.ar      1 <0>        -0.0089
     24 C18        13.4942   -7.0537   -0.1523 C.ar      1 <0>        -0.1195
     25 C19        14.8543   -7.1452   -0.1575 C.ar      1 <0>        -0.0992
     26 C20        15.4875   -8.3856   -0.1744 C.ar      1 <0>        -0.1231
     27 C21        14.7668   -9.5409   -0.1861 C.ar      1 <0>        -0.0919
     28 C22        13.3626   -9.4843   -0.1811 C.ar      1 <0>        -0.0670
     29 C23        12.5853  -10.6559   -0.1918 C.ar      1 <0>        -0.0646
     30 C24        11.2277  -10.5900   -0.1860 C.ar      1 <0>        -0.1496
     31 C25        10.5517   -9.3709   -0.1645 C.ar      1 <0>         0.1685
     32 O2          9.1942   -9.3524   -0.1540 O.3       1 <0>        -0.4716
     33 H2         -0.9634    1.8758    0.0259 H         1 <0>         0.1239
     34 H3          1.1257    3.1702    0.0083 H         1 <0>         0.1240
     35 H4          3.2880    2.0493   -0.0195 H         1 <0>         0.1279
     36 H5          4.5934   -0.0559   -0.0430 H         1 <0>         0.1348
     37 H6          2.5182   -3.8026   -0.0425 H         1 <0>         0.1297
     38 H7          0.3703   -2.6641   -0.0169 H         1 <0>         0.1326
     39 H8         -0.9244   -0.5591    0.0082 H         1 <0>         0.1284
     40 H9          4.3911   -4.8665   -0.0753 H         1 <0>         0.1727
     41 H10         9.0866   -4.7943   -0.1104 H         1 <0>         0.3771
     42 H11        11.1163   -5.9583   -0.1367 H         1 <0>         0.1213
     43 H12        13.0151   -6.0859   -0.1395 H         1 <0>         0.1257
     44 H13        15.4489   -6.2437   -0.1488 H         1 <0>         0.1266
     45 H14        16.5665   -8.4319   -0.1786 H         1 <0>         0.1266
     46 H15        15.2716  -10.4955   -0.1995 H         1 <0>         0.1318
     47 H16        13.0727  -11.6196   -0.2051 H         1 <0>         0.1354
     48 H17        10.6571  -11.5070   -0.1945 H         1 <0>         0.1360
     49 H18         8.7942   -9.3387   -1.0343 H         1 <0>         0.3960
@<TRIPOS>BOND
     1    1   10 ar
     2    1    2 ar
     3    1   33 1
     4    2    3 ar
     5    2   34 1
     6    3    4 ar
     7    3   35 1
     8    4    9 ar
     9    4    5 ar
    10    5    6 ar
    11    5   36 1
    12    6    7 ar
    13    6   11 1
    14    7    8 ar
    15    7   37 1
    16    8    9 ar
    17    8   38 1
    18    9   10 ar
    19   10   39 1
    20   11   16 2
    21   11   12 1
    22   12   13 2
    23   12   40 1
    24   13   14 1
    25   13   17 1
    26   14   15 1
    27   14   16 1
    28   17   18 2
    29   17   19 am
    30   19   20 1
    31   19   41 1
    32   20   21 2
    33   21   22 1
    34   21   42 1
    35   22   31 ar
    36   22   23 ar
    37   23   28 ar
    38   23   24 ar
    39   24   25 ar
    40   24   43 1
    41   25   26 ar
    42   25   44 1
    43   26   27 ar
    44   26   45 1
    45   27   28 ar
    46   27   46 1
    47   28   29 ar
    48   29   30 ar
    49   29   47 1
    50   30   31 ar
    51   30   48 1
    52   31   32 1
    53   32   49 1
@<TRIPOS>MOLECULE
ZINC05033987
   51    53     0     0     0
SMALL
USER_CHARGES
N-[1-(3,4-dimethoxyphenyl)ethylideneamino]-5-(4-methoxyphenyl)-2H-pyrazole-3-carboxamide
@<TRIPOS>ATOM
      1 C1         -0.1475    4.3013    0.0256 C.3       1 <0>        -0.1598
      2 C2          1.1664    3.5635    0.0096 C.2       1 <0>         0.1499
      3 N1          2.2828    4.2260    0.0025 N.2       1 <0>        -0.2303
      4 N2          2.2661    5.6269    0.0097 N.am      1 <0>        -0.5821
      5 C3          3.4252    6.3146    0.0023 C.2       1 <0>         0.6116
      6 O1          4.4860    5.7189   -0.0106 O.2       1 <0>        -0.4794
      7 C4          3.4076    7.7858    0.0099 C.2       1 <0>        -0.0373
      8 C5          4.5048    8.6266    0.0039 C.2       1 <0>        -0.1294
      9 C6          3.9741    9.9294    0.0145 C.2       1 <0>         0.0777
     10 N3          2.6619    9.8240    0.0258 N.2       1 <0>        -0.2512
     11 N4          2.3033    8.5909    0.0183 N.pl3     1 <0>        -0.3789
     12 H1          1.3569    8.2679    0.0186 H         1 <0>         0.4508
     13 C7          4.7523   11.1934    0.0133 C.ar      1 <0>        -0.0519
     14 C8          6.1452   11.1555    0.0064 C.ar      1 <0>        -0.0560
     15 C9          6.8657   12.3316   -0.0006 C.ar      1 <0>        -0.2069
     16 C10         6.2047   13.5522    0.0104 C.ar      1 <0>         0.1358
     17 C11         4.8172   13.5930    0.0236 C.ar      1 <0>        -0.1521
     18 C12         4.0915   12.4200    0.0248 C.ar      1 <0>        -0.0522
     19 O2          6.9171   14.7093    0.0088 O.3       1 <0>        -0.3162
     20 C13         8.3414   14.5942   -0.0050 C.3       1 <0>         0.0252
     21 C14         1.1840    2.0895    0.0020 C.ar      1 <0>        -0.0525
     22 C15        -0.0166    1.3747    0.0096 C.ar      1 <0>        -0.0841
     23 C16         0.0021   -0.0041    0.0020 C.ar      1 <0>        -0.1783
     24 C17         1.2109   -0.6847   -0.0136 C.ar      1 <0>         0.1203
     25 C18         2.4119    0.0214   -0.0218 C.ar      1 <0>         0.0965
     26 C19         2.4013    1.4036   -0.0138 C.ar      1 <0>        -0.1317
     27 O3          3.5948   -0.6494   -0.0371 O.3       1 <0>        -0.3048
     28 C20         4.7871    0.1382   -0.0447 C.3       1 <0>         0.0239
     29 O4          1.2235   -2.0440   -0.0215 O.3       1 <0>        -0.3029
     30 C21        -0.0436   -2.7046   -0.0129 C.3       1 <0>         0.0237
     31 H2         -0.4547    4.4740    1.0570 H         1 <0>         0.0920
     32 H3         -0.0333    5.2578   -0.4845 H         1 <0>         0.0678
     33 H4         -0.9049    3.7058   -0.4842 H         1 <0>         0.0947
     34 H5          1.4204    6.1018    0.0200 H         1 <0>         0.3798
     35 H6          5.5470    8.3437   -0.0073 H         1 <0>         0.1707
     36 H7          6.6601   10.2061    0.0024 H         1 <0>         0.1313
     37 H8          7.9453   12.3028   -0.0104 H         1 <0>         0.1335
     38 H9          4.3055   14.5440    0.0325 H         1 <0>         0.1351
     39 H10         3.0120   12.4523    0.0350 H         1 <0>         0.1368
     40 H11         8.6705   14.0489    0.8796 H         1 <0>         0.0574
     41 H12         8.6538   14.0566   -0.9003 H         1 <0>         0.0575
     42 H13         8.7864   15.5892   -0.0048 H         1 <0>         0.1016
     43 H14        -0.9591    1.9020    0.0169 H         1 <0>         0.1360
     44 H15        -0.9265   -0.5554    0.0079 H         1 <0>         0.1424
     45 H16         3.3316    1.9521   -0.0205 H         1 <0>         0.1498
     46 H17         5.6566   -0.5190   -0.0569 H         1 <0>         0.1031
     47 H18         4.7983    0.7720   -0.9315 H         1 <0>         0.0577
     48 H19         4.8160    0.7625    0.8484 H         1 <0>         0.0577
     49 H20        -0.5946   -2.4220    0.8841 H         1 <0>         0.0574
     50 H21        -0.6119   -2.4119   -0.8958 H         1 <0>         0.0573
     51 H22         0.1093   -3.7838   -0.0206 H         1 <0>         0.1030
@<TRIPOS>BOND
     1    1    2 1
     2    1   31 1
     3    1   32 1
     4    1   33 1
     5    2    3 2
     6    2   21 1
     7    3    4 1
     8    4    5 am
     9    4   34 1
    10    5    6 2
    11    5    7 1
    12    7   11 1
    13    7    8 2
    14    8    9 1
    15    8   35 1
    16    9   10 2
    17    9   13 1
    18   10   11 1
    19   11   12 1
    20   13   18 ar
    21   13   14 ar
    22   14   15 ar
    23   14   36 1
    24   15   16 ar
    25   15   37 1
    26   16   17 ar
    27   16   19 1
    28   17   18 ar
    29   17   38 1
    30   18   39 1
    31   19   20 1
    32   20   40 1
    33   20   41 1
    34   20   42 1
    35   21   26 ar
    36   21   22 ar
    37   22   23 ar
    38   22   43 1
    39   23   24 ar
    40   23   44 1
    41   24   25 ar
    42   24   29 1
    43   25   26 ar
    44   25   27 1
    45   26   45 1
    46   27   28 1
    47   28   46 1
    48   28   47 1
    49   28   48 1
    50   29   30 1
    51   30   49 1
    52   30   50 1
    53   30   51 1
@<TRIPOS>MOLECULE
ZINC08437621
   65    64     0     0     0
SMALL
USER_CHARGES
2-dimethylaminooctadec-4-ene-1,3-diol
@<TRIPOS>ATOM
      1 C1         -5.0773    2.6165  -12.5353 C.3       1 <0>        -0.1548
      2 C2         -4.1657    1.9600  -11.4966 C.3       1 <0>        -0.1261
      3 C3         -4.4720    2.5358  -10.1125 C.3       1 <0>        -0.1215
      4 C4         -3.5604    1.8794   -9.0738 C.3       1 <0>        -0.1211
      5 C5         -3.8668    2.4552   -7.6898 C.3       1 <0>        -0.1209
      6 C6         -2.9552    1.7987   -6.6511 C.3       1 <0>        -0.1206
      7 C7         -3.2615    2.3745   -5.2671 C.3       1 <0>        -0.1210
      8 C8         -2.3499    1.7180   -4.2284 C.3       1 <0>        -0.1205
      9 C9         -2.6562    2.2939   -2.8444 C.3       1 <0>        -0.1214
     10 C10        -1.7446    1.6374   -1.8057 C.3       1 <0>        -0.1202
     11 C11        -2.0510    2.2132   -0.4217 C.3       1 <0>        -0.1222
     12 C12        -1.1394    1.5567    0.6170 C.3       1 <0>        -0.1152
     13 C13        -1.4457    2.1325    2.0010 C.3       1 <0>        -0.1061
     14 C14        -0.5478    1.4859    3.0241 C.2       1 <0>        -0.0765
     15 C15         0.2016    2.2286    3.8006 C.2       1 <0>        -0.2740
     16 C16         1.0995    1.5820    4.8237 C.3       1 <0>         0.1387
     17 H1          0.7661    1.8559    5.8246 H         1 <0>         0.1325
     18 C17         2.5375    2.0617    4.6161 C.3       1 <0>         0.0018
     19 H2          2.8643    1.8047    3.6085 H         1 <0>         0.1451
     20 C18         3.4534    1.3846    5.6376 C.3       1 <0>         0.0623
     21 O1          2.9346    1.5909    6.9530 O.3       1 <0>        -0.5695
     22 C19         2.3199    3.8909    6.1875 C.3       1 <0>        -0.0444
     23 C20         3.8965    4.0487    4.3566 C.3       1 <0>        -0.0463
     24 O2          1.0451    0.1617    4.6755 O.3       1 <0>        -0.5273
     25 H3         -6.1187    2.4184  -12.2817 H         1 <0>         0.0537
     26 H4         -4.9035    3.6925  -12.5428 H         1 <0>         0.0534
     27 H5         -4.8590    2.2063  -13.5213 H         1 <0>         0.0544
     28 H6         -3.1243    2.1581  -11.7501 H         1 <0>         0.0602
     29 H7         -4.3394    0.8840  -11.4890 H         1 <0>         0.0605
     30 H8         -5.5134    2.3377   -9.8590 H         1 <0>         0.0609
     31 H9         -4.2983    3.6119  -10.1201 H         1 <0>         0.0605
     32 H10        -2.5190    2.0775   -9.3274 H         1 <0>         0.0604
     33 H11        -3.7342    0.8033   -9.0663 H         1 <0>         0.0608
     34 H12        -4.9082    2.2571   -7.4363 H         1 <0>         0.0609
     35 H13        -3.6930    3.5312   -7.6974 H         1 <0>         0.0604
     36 H14        -1.9137    1.9968   -6.9047 H         1 <0>         0.0601
     37 H15        -3.1289    0.7227   -6.6435 H         1 <0>         0.0609
     38 H16        -4.3029    2.1764   -5.0135 H         1 <0>         0.0612
     39 H17        -3.0878    3.4506   -5.2747 H         1 <0>         0.0603
     40 H18        -1.3085    1.9161   -4.4820 H         1 <0>         0.0599
     41 H19        -2.5236    0.6420   -4.2208 H         1 <0>         0.0612
     42 H20        -3.6976    2.0957   -2.5908 H         1 <0>         0.0622
     43 H21        -2.4825    3.3699   -2.8520 H         1 <0>         0.0605
     44 H22        -0.7032    1.8355   -2.0593 H         1 <0>         0.0599
     45 H23        -1.9184    0.5613   -1.7981 H         1 <0>         0.0626
     46 H24        -3.0924    2.0151   -0.1681 H         1 <0>         0.0652
     47 H25        -1.8772    3.2892   -0.4293 H         1 <0>         0.0616
     48 H26        -1.3131    0.4807    0.6246 H         1 <0>         0.0678
     49 H27        -0.0979    1.7548    0.3634 H         1 <0>         0.0611
     50 H28        -1.2720    3.2086    1.9935 H         1 <0>         0.0700
     51 H29        -2.4871    1.9344    2.2546 H         1 <0>         0.0867
     52 H30        -0.5222    0.4102    3.1172 H         1 <0>         0.1268
     53 H31         0.1760    3.3043    3.7075 H         1 <0>         0.1164
     54 H32         3.5021    0.3157    5.4298 H         1 <0>         0.0978
     55 H33         4.4531    1.8138    5.5699 H         1 <0>         0.0702
     56 H34         3.4662    1.1880    7.6532 H         1 <0>         0.4041
     57 H35         3.1314    3.5416    6.8258 H         1 <0>         0.1404
     58 H36         2.2379    4.9751    6.2644 H         1 <0>         0.1138
     59 H37         1.3838    3.4322    6.5061 H         1 <0>         0.1220
     60 H38         4.0461    3.8189    3.3016 H         1 <0>         0.1209
     61 H39         3.9144    5.1292    4.4991 H         1 <0>         0.1259
     62 H40         4.6923    3.5914    4.9445 H         1 <0>         0.1225
     63 H41         1.2855   -0.1511    3.7926 H         1 <0>         0.3840
     64 N1          2.5778    3.5303    4.7774 N.4       1 <0>        -0.3900
     65 H42         1.8504    3.9508    4.1873 H         1 <0>         0.4272
@<TRIPOS>BOND
     1    1    2 1
     2    1   25 1
     3    1   26 1
     4    1   27 1
     5    2    3 1
     6    2   28 1
     7    2   29 1
     8    3    4 1
     9    3   30 1
    10    3   31 1
    11    4    5 1
    12    4   32 1
    13    4   33 1
    14    5    6 1
    15    5   34 1
    16    5   35 1
    17    6    7 1
    18    6   36 1
    19    6   37 1
    20    7    8 1
    21    7   38 1
    22    7   39 1
    23    8    9 1
    24    8   40 1
    25    8   41 1
    26    9   10 1
    27    9   42 1
    28    9   43 1
    29   10   11 1
    30   10   44 1
    31   10   45 1
    32   11   12 1
    33   11   46 1
    34   11   47 1
    35   12   13 1
    36   12   48 1
    37   12   49 1
    38   13   14 1
    39   13   50 1
    40   13   51 1
    41   14   15 2
    42   14   52 1
    43   15   16 1
    44   15   53 1
    45   16   17 1
    46   16   18 1
    47   16   24 1
    48   18   19 1
    49   18   20 1
    50   18   64 1
    51   20   21 1
    52   20   54 1
    53   20   55 1
    54   21   56 1
    55   22   57 1
    56   22   58 1
    57   22   59 1
    58   22   64 1
    59   23   60 1
    60   23   61 1
    61   23   62 1
    62   23   64 1
    63   24   63 1
    64   64   65 1
@<TRIPOS>MOLECULE
ZINC49881746
   76    76     0     0     0
SMALL
USER_CHARGES

@<TRIPOS>ATOM
      1 C1         -0.0187    1.5258    0.0104 C.3       1 <0>        -0.1543
      2 C2          0.0021   -0.0041    0.0020 C.3       1 <0>        -0.1262
      3 C3          0.7182   -0.4975   -1.2568 C.3       1 <0>        -0.1212
      4 C4          0.7390   -2.0273   -1.2652 C.3       1 <0>        -0.1213
      5 C5          1.4551   -2.5207   -2.5240 C.3       1 <0>        -0.1206
      6 C6          1.4758   -4.0506   -2.5324 C.3       1 <0>        -0.1209
      7 C7          2.1920   -4.5440   -3.7912 C.3       1 <0>        -0.1204
      8 C8          2.2127   -6.0738   -3.7996 C.3       1 <0>        -0.1211
      9 C9          2.9289   -6.5673   -5.0584 C.3       1 <0>        -0.1203
     10 C10         2.9496   -8.0971   -5.0668 C.3       1 <0>        -0.1214
     11 C11         3.6658   -8.5905   -6.3257 C.3       1 <0>        -0.1202
     12 C12         3.6865  -10.1203   -6.3341 C.3       1 <0>        -0.1184
     13 C13         4.4026  -10.6138   -7.5929 C.3       1 <0>        -0.0247
     14 C14         4.4226  -12.0856   -7.6010 C.1       1 <0>        -0.0533
     15 C15         4.4385  -13.2595   -7.6074 C.1       1 <0>        -0.2594
     16 C16         4.4579  -14.6913   -7.6153 C.2       1 <0>         0.4666
     17 O1          4.9828  -15.2859   -8.5335 O.2       1 <0>        -0.3963
     18 C17         3.8265  -15.4597   -6.4831 C.3       1 <0>         0.0641
     19 H1          2.8571  -15.0345   -6.2230 H         1 <0>         0.1233
     20 C18         4.7627  -15.4875   -5.2490 C.3       1 <0>         0.0565
     21 O2          4.3426  -16.6930   -4.5692 O.3       1 <0>        -0.3455
     22 C19         4.0476  -17.6400   -5.6094 C.3       1 <0>         0.3395
     23 N1          3.6947  -16.8920   -6.8306 N.am      1 <0>        -0.6112
     24 C20         3.3285  -17.4061   -8.0215 C.2       1 <0>         0.6919
     25 O3          3.2607  -18.6104   -8.1683 O.2       1 <0>        -0.5517
     26 O4          3.0379  -16.5853   -9.0484 O.3       1 <0>        -0.3453
     27 C21         2.6572  -17.1987  -10.2816 C.3       1 <0>         0.1360
     28 C22         1.4014  -18.0451  -10.0637 C.3       1 <0>        -0.1860
     29 C23         2.3677  -16.1151  -11.3222 C.3       1 <0>        -0.1391
     30 C24         3.7948  -18.0927  -10.7791 C.3       1 <0>        -0.1831
     31 C25         5.2742  -18.5156   -5.8734 C.3       1 <0>        -0.1763
     32 C26         2.8683  -18.5190   -5.1879 C.3       1 <0>        -0.1588
     33 H2          1.0039    1.9031    0.0027 H         1 <0>         0.0533
     34 H3         -0.5459    1.8868   -0.8726 H         1 <0>         0.0533
     35 H4         -0.5289    1.8773    0.9072 H         1 <0>         0.0535
     36 H5          0.5293   -0.3651    0.8851 H         1 <0>         0.0602
     37 H6         -1.0205   -0.3814    0.0098 H         1 <0>         0.0603
     38 H7          0.1910   -0.1364   -2.1398 H         1 <0>         0.0606
     39 H8          1.7408   -0.1202   -1.2645 H         1 <0>         0.0605
     40 H9          1.2661   -2.3884   -0.3821 H         1 <0>         0.0605
     41 H10        -0.2836   -2.4046   -1.2575 H         1 <0>         0.0605
     42 H11         0.9279   -2.1597   -3.4071 H         1 <0>         0.0604
     43 H12         2.4777   -2.1435   -2.5317 H         1 <0>         0.0604
     44 H13         2.0030   -4.4117   -1.6494 H         1 <0>         0.0604
     45 H14         0.4533   -4.4279   -2.5247 H         1 <0>         0.0604
     46 H15         1.6648   -4.1829   -4.6743 H         1 <0>         0.0605
     47 H16         3.2146   -4.1667   -3.7990 H         1 <0>         0.0605
     48 H17         2.7399   -6.4349   -2.9166 H         1 <0>         0.0606
     49 H18         1.1901   -6.4511   -3.7919 H         1 <0>         0.0606
     50 H19         2.4017   -6.2062   -5.9415 H         1 <0>         0.0613
     51 H20         3.9515   -6.1900   -5.0662 H         1 <0>         0.0613
     52 H21         3.4768   -8.4582   -4.1838 H         1 <0>         0.0621
     53 H22         1.9270   -8.4744   -5.0591 H         1 <0>         0.0622
     54 H23         3.1386   -8.2294   -7.2087 H         1 <0>         0.0658
     55 H24         4.6884   -8.2132   -6.3334 H         1 <0>         0.0658
     56 H25         4.2137  -10.4814   -5.4510 H         1 <0>         0.0690
     57 H26         2.6639  -10.4976   -6.3263 H         1 <0>         0.0695
     58 H27         3.8755  -10.2527   -8.4759 H         1 <0>         0.1016
     59 H28         5.4252  -10.2365   -7.6006 H         1 <0>         0.1003
     60 H29         5.8063  -15.5590   -5.5557 H         1 <0>         0.0814
     61 H30         4.6015  -14.6117   -4.6204 H         1 <0>         0.1245
     62 H31         0.5909  -17.4082   -9.7093 H         1 <0>         0.0581
     63 H32         1.1109  -18.5131  -11.0044 H         1 <0>         0.0712
     64 H33         1.6076  -18.8171   -9.3224 H         1 <0>         0.0873
     65 H34         3.2624  -15.5122  -11.4774 H         1 <0>         0.0668
     66 H35         2.0773  -16.5831  -12.2628 H         1 <0>         0.0811
     67 H36         1.5573  -15.4782  -10.9678 H         1 <0>         0.0638
     68 H37         4.0010  -18.8647  -10.0377 H         1 <0>         0.0860
     69 H38         3.5044  -18.5607  -11.7197 H         1 <0>         0.0688
     70 H39         4.6895  -17.4897  -10.9342 H         1 <0>         0.0615
     71 H40         5.5255  -19.0709   -4.9698 H         1 <0>         0.0806
     72 H41         5.0546  -19.2147   -6.6803 H         1 <0>         0.0858
     73 H42         6.1163  -17.8849   -6.1583 H         1 <0>         0.0612
     74 H43         2.0009  -17.8907   -4.9857 H         1 <0>         0.0660
     75 H44         2.6315  -19.2182   -5.9899 H         1 <0>         0.0895
     76 H45         3.1325  -19.0743   -4.2879 H         1 <0>         0.0798
@<TRIPOS>BOND
     1    1    2 1
     2    1   33 1
     3    1   34 1
     4    1   35 1
     5    2    3 1
     6    2   36 1
     7    2   37 1
     8    3    4 1
     9    3   38 1
    10    3   39 1
    11    4    5 1
    12    4   40 1
    13    4   41 1
    14    5    6 1
    15    5   42 1
    16    5   43 1
    17    6    7 1
    18    6   44 1
    19    6   45 1
    20    7    8 1
    21    7   46 1
    22    7   47 1
    23    8    9 1
    24    8   48 1
    25    8   49 1
    26    9   10 1
    27    9   50 1
    28    9   51 1
    29   10   11 1
    30   10   52 1
    31   10   53 1
    32   11   12 1
    33   11   54 1
    34   11   55 1
    35   12   13 1
    36   12   56 1
    37   12   57 1
    38   13   14 1
    39   13   58 1
    40   13   59 1
    41   14   15 3
    42   15   16 1
    43   16   17 2
    44   16   18 1
    45   18   19 1
    46   18   23 1
    47   18   20 1
    48   20   21 1
    49   20   60 1
    50   20   61 1
    51   21   22 1
    52   22   23 1
    53   22   31 1
    54   22   32 1
    55   23   24 am
    56   24   25 2
    57   24   26 1
    58   26   27 1
    59   27   28 1
    60   27   29 1
    61   27   30 1
    62   28   62 1
    63   28   63 1
    64   28   64 1
    65   29   65 1
    66   29   66 1
    67   29   67 1
    68   30   68 1
    69   30   69 1
    70   30   70 1
    71   31   71 1
    72   31   72 1
    73   31   73 1
    74   32   74 1
    75   32   75 1
    76   32   76 1
@<TRIPOS>MOLECULE
ZINC08195650
   59    58     0     0     0
SMALL
USER_CHARGES
2-aminooctadec-4-ene-1,3-diol
@<TRIPOS>ATOM
      1 C1        -14.6046    0.2647   13.8444 C.3       1 <0>        -0.1548
      2 C2        -13.8885   -0.2287   12.5856 C.3       1 <0>        -0.1261
      3 C3        -12.4960    0.4007   12.5112 C.3       1 <0>        -0.1215
      4 C4        -11.7798   -0.0927   11.2524 C.3       1 <0>        -0.1212
      5 C5        -10.3873    0.5367   11.1781 C.3       1 <0>        -0.1209
      6 C6         -9.6711    0.0433    9.9193 C.3       1 <0>        -0.1206
      7 C7         -8.2786    0.6727    9.8449 C.3       1 <0>        -0.1210
      8 C8         -7.5624    0.1793    8.5861 C.3       1 <0>        -0.1206
      9 C9         -6.1699    0.8087    8.5117 C.3       1 <0>        -0.1214
     10 C10        -5.4537    0.3153    7.2529 C.3       1 <0>        -0.1205
     11 C11        -4.0612    0.9447    7.1786 C.3       1 <0>        -0.1222
     12 C12        -3.3451    0.4513    5.9198 C.3       1 <0>        -0.1156
     13 C13        -1.9525    1.0807    5.8454 C.3       1 <0>        -0.1069
     14 C14        -1.2471    0.5947    4.6055 C.2       1 <0>        -0.0724
     15 C15        -0.7691    1.4573    3.7432 C.2       1 <0>        -0.2755
     16 C16        -0.0638    0.9713    2.5033 C.3       1 <0>         0.1385
     17 H1          0.9829    1.2737    2.5386 H         1 <0>         0.1274
     18 C17        -0.7288    1.5792    1.2668 C.3       1 <0>         0.0066
     19 H2         -1.7755    1.2768    1.2315 H         1 <0>         0.1475
     20 C18        -0.0127    1.0858    0.0080 C.3       1 <0>         0.0501
     21 O1         -0.7038    1.5592   -1.1497 O.3       1 <0>        -0.5828
     22 O2         -0.1458   -0.4537    2.4363 O.3       1 <0>        -0.5290
     23 H3        -14.0294   -0.0207   14.7252 H         1 <0>         0.0537
     24 H4        -14.6980    1.3501   13.8075 H         1 <0>         0.0534
     25 H5        -15.5967   -0.1837   13.8974 H         1 <0>         0.0544
     26 H6        -14.4637    0.0567   11.7048 H         1 <0>         0.0602
     27 H7        -13.7951   -1.3141   12.6225 H         1 <0>         0.0605
     28 H8        -11.9207    0.1153   13.3920 H         1 <0>         0.0609
     29 H9        -12.5893    1.4861   12.4743 H         1 <0>         0.0605
     30 H10       -12.3551    0.1927   10.3717 H         1 <0>         0.0604
     31 H11       -11.6865   -1.1781   11.2894 H         1 <0>         0.0608
     32 H12        -9.8120    0.2513   12.0588 H         1 <0>         0.0609
     33 H13       -10.4806    1.6221   11.1411 H         1 <0>         0.0604
     34 H14       -10.2464    0.3287    9.0385 H         1 <0>         0.0602
     35 H15        -9.5778   -1.0421    9.9562 H         1 <0>         0.0608
     36 H16        -7.7033    0.3873   10.7256 H         1 <0>         0.0612
     37 H17        -8.3719    1.7581    9.8080 H         1 <0>         0.0604
     38 H18        -8.1377    0.4647    7.7053 H         1 <0>         0.0600
     39 H19        -7.4691   -0.9061    8.6230 H         1 <0>         0.0612
     40 H20        -5.5946    0.5233    9.3925 H         1 <0>         0.0621
     41 H21        -6.2632    1.8941    8.4748 H         1 <0>         0.0606
     42 H22        -6.0290    0.6007    6.3722 H         1 <0>         0.0601
     43 H23        -5.3604   -0.7701    7.2899 H         1 <0>         0.0626
     44 H24        -3.4860    0.6593    8.0593 H         1 <0>         0.0652
     45 H25        -4.1546    2.0301    7.1416 H         1 <0>         0.0618
     46 H26        -3.9203    0.7367    5.0390 H         1 <0>         0.0616
     47 H27        -3.2517   -0.6341    5.9567 H         1 <0>         0.0679
     48 H28        -1.3773    0.7953    6.7261 H         1 <0>         0.0872
     49 H29        -2.0459    2.1661    5.8085 H         1 <0>         0.0708
     50 H30        -1.1357   -0.4647    4.4278 H         1 <0>         0.1271
     51 H31        -0.8806    2.5168    3.9209 H         1 <0>         0.1203
     52 H32         0.0021   -0.0041    0.0020 H         1 <0>         0.1022
     53 H33         1.0099    1.4631    0.0003 H         1 <0>         0.0749
     54 H34        -0.3044    1.2838   -1.9862 H         1 <0>         0.4126
     55 H35        -1.1648    3.3997    2.1238 H         1 <0>         0.4373
     56 H36         0.3165    3.3498    1.3694 H         1 <0>         0.4353
     57 H37        -1.0502   -0.7944    2.4021 H         1 <0>         0.3905
     58 N1         -0.6555    3.0502    1.3138 N.4       1 <0>        -0.6366
     59 H38        -1.0768    3.4365    0.4609 H         1 <0>         0.4493
@<TRIPOS>BOND
     1    1    2 1
     2    1   23 1
     3    1   24 1
     4    1   25 1
     5    2    3 1
     6    2   26 1
     7    2   27 1
     8    3    4 1
     9    3   28 1
    10    3   29 1
    11    4    5 1
    12    4   30 1
    13    4   31 1
    14    5    6 1
    15    5   32 1
    16    5   33 1
    17    6    7 1
    18    6   34 1
    19    6   35 1
    20    7    8 1
    21    7   36 1
    22    7   37 1
    23    8    9 1
    24    8   38 1
    25    8   39 1
    26    9   10 1
    27    9   40 1
    28    9   41 1
    29   10   11 1
    30   10   42 1
    31   10   43 1
    32   11   12 1
    33   11   44 1
    34   11   45 1
    35   12   13 1
    36   12   46 1
    37   12   47 1
    38   13   14 1
    39   13   48 1
    40   13   49 1
    41   14   15 2
    42   14   50 1
    43   15   16 1
    44   15   51 1
    45   16   17 1
    46   16   18 1
    47   16   22 1
    48   18   19 1
    49   18   20 1
    50   18   58 1
    51   20   21 1
    52   20   52 1
    53   20   53 1
    54   21   54 1
    55   22   57 1
    56   55   58 1
    57   56   58 1
    58   58   59 1
