@<TRIPOS>MOLECULE
ZINC28107226
   58    61     0     0     0
SMALL
USER_CHARGES

@<TRIPOS>ATOM
      1 C1          0.7242    0.7451   -0.7704 C.3       1 <0>        -0.1302
      2 C2          0.5928   -0.7557   -0.7324 C.2       1 <0>        -0.0902
      3 C3          0.9877   -1.4213    0.3246 C.2       1 <0>        -0.1768
      4 C4          1.4594   -0.6801    1.5489 C.3       1 <0>         0.0877
      5 O1          0.7952   -1.1967    2.7039 O.3       1 <0>        -0.2983
      6 C5          1.1091   -0.6339    3.8987 C.ar      1 <0>         0.1928
      7 C6          2.0387    0.4032    3.9511 C.ar      1 <0>        -0.2291
      8 C7          2.3652    0.9790    5.1445 C.ar      1 <0>        -0.0096
      9 C8          1.7624    0.5257    6.3235 C.ar      1 <0>        -0.2023
     10 C9          2.0929    1.1250    7.6181 C.2       1 <0>         0.0113
     11 C10         1.4735    0.6412    8.7262 C.2       1 <0>        -0.2576
     12 C11         0.5416   -0.4101    8.6061 C.2       1 <0>         0.5094
     13 O2         -0.0065   -0.8345    9.6075 O.2       1 <0>        -0.4614
     14 O3          0.2429   -0.9550    7.4163 O.3       1 <0>        -0.2699
     15 C12         0.8228   -0.5209    6.2768 C.ar      1 <0>         0.1903
     16 C13         0.4988   -1.0912    5.0549 C.ar      1 <0>        -0.1777
     17 C14         0.0071   -1.4909   -1.9104 C.3       1 <0>        -0.1083
     18 C15        -1.5187   -1.5011   -1.7978 C.3       1 <0>        -0.1020
     19 C16        -2.1191   -2.1200   -3.0617 C.3       1 <0>        -0.0999
     20 H1         -1.6663   -1.6880   -3.9541 H         1 <0>         0.0822
     21 C17        -1.9504   -3.6690   -3.0517 C.3       1 <0>         0.0923
     22 C18        -2.3324   -4.1343   -4.4888 C.3       1 <0>        -0.1420
     23 C19        -3.8722   -3.9571   -4.5089 C.3       1 <0>        -0.1580
     24 C20        -4.1753   -3.4129   -3.0806 C.3       1 <0>         0.0713
     25 H2         -5.1978   -3.5588   -2.7322 H         1 <0>         0.1263
     26 C21        -3.6583   -1.9384   -3.0841 C.3       1 <0>        -0.0858
     27 C22        -4.1343   -1.1925   -1.8360 C.3       1 <0>        -0.1385
     28 C23        -4.0996   -1.2089   -4.3546 C.3       1 <0>        -0.1424
     29 O4         -3.1350   -4.0806   -2.2937 O.3       1 <0>        -0.3672
     30 C24        -0.6108   -4.1795   -2.5171 C.3       1 <0>        -0.1287
     31 H3          1.7589    1.0243   -0.5715 H         1 <0>         0.0686
     32 H4          0.4320    1.1106   -1.7548 H         1 <0>         0.0672
     33 H5          0.0768    1.1858   -0.0123 H         1 <0>         0.0704
     34 H6          0.9751   -2.5012    0.3185 H         1 <0>         0.1212
     35 H7          2.5359   -0.8103    1.6602 H         1 <0>         0.0741
     36 H8          1.2308    0.3804    1.4422 H         1 <0>         0.0751
     37 H9          2.5039    0.7532    3.0415 H         1 <0>         0.1407
     38 H10         3.0868    1.7819    5.1791 H         1 <0>         0.1439
     39 H11         2.8098    1.9296    7.6900 H         1 <0>         0.1537
     40 H12         1.6946    1.0605    9.6966 H         1 <0>         0.1644
     41 H13        -0.2238   -1.8923    5.0056 H         1 <0>         0.1528
     42 H14         0.3000   -0.9902   -2.8333 H         1 <0>         0.0697
     43 H15         0.3777   -2.5159   -1.9197 H         1 <0>         0.0908
     44 H16        -1.8150   -2.0892   -0.9292 H         1 <0>         0.0722
     45 H17        -1.8816   -0.4795   -1.6858 H         1 <0>         0.0695
     46 H18        -1.8608   -3.4990   -5.2386 H         1 <0>         0.0738
     47 H19        -2.0620   -5.1792   -4.6411 H         1 <0>         0.0724
     48 H20        -4.1677   -3.2335   -5.2685 H         1 <0>         0.0854
     49 H21        -4.3689   -4.9136   -4.6711 H         1 <0>         0.0715
     50 H22        -3.6646   -0.2096   -1.7989 H         1 <0>         0.0592
     51 H23        -5.2175   -1.0763   -1.8731 H         1 <0>         0.0537
     52 H24        -3.8600   -1.7601   -0.9468 H         1 <0>         0.0633
     53 H25        -3.6318   -1.6746   -5.2220 H         1 <0>         0.0628
     54 H26        -5.1837   -1.2693   -4.4503 H         1 <0>         0.0590
     55 H27        -3.7976   -0.1632   -4.2966 H         1 <0>         0.0579
     56 H28        -0.5080   -3.9006   -1.4684 H         1 <0>         0.0748
     57 H29        -0.5723   -5.2648   -2.6098 H         1 <0>         0.0654
     58 H30         0.2024   -3.7366   -3.0921 H         1 <0>         0.0791
@<TRIPOS>BOND
     1    1    2 1
     2    1   31 1
     3    1   32 1
     4    1   33 1
     5    2    3 2
     6    2   17 1
     7    3    4 1
     8    3   34 1
     9    4    5 1
    10    4   35 1
    11    4   36 1
    12    5    6 1
    13    6   16 ar
    14    6    7 ar
    15    7    8 ar
    16    7   37 1
    17    8    9 ar
    18    8   38 1
    19    9   15 ar
    20    9   10 1
    21   10   11 2
    22   10   39 1
    23   11   12 1
    24   11   40 1
    25   12   13 2
    26   12   14 1
    27   14   15 1
    28   15   16 ar
    29   16   41 1
    30   17   18 1
    31   17   42 1
    32   17   43 1
    33   18   19 1
    34   18   44 1
    35   18   45 1
    36   19   20 1
    37   19   26 1
    38   19   21 1
    39   21   29 1
    40   21   22 1
    41   21   30 1
    42   22   23 1
    43   22   46 1
    44   22   47 1
    45   23   24 1
    46   23   48 1
    47   23   49 1
    48   24   25 1
    49   24   26 1
    50   24   29 1
    51   26   27 1
    52   26   28 1
    53   27   50 1
    54   27   51 1
    55   27   52 1
    56   28   53 1
    57   28   54 1
    58   28   55 1
    59   30   56 1
    60   30   57 1
    61   30   58 1
@<TRIPOS>MOLECULE
ZINC02563947
   56    57     0     0     0
SMALL
USER_CHARGES

@<TRIPOS>ATOM
      1 C1         -0.2870    1.0126    0.0755 C.3       1 <0>        -0.0538
      2 N1         -0.1364   -0.4467    0.0014 N.4       1 <0>        -0.3846
      3 C2          0.6056   -0.8012   -1.2159 C.3       1 <0>        -0.0116
      4 C3         -0.2189   -0.4164   -2.4459 C.3       1 <0>        -0.1494
      5 C4          0.5538   -0.7857   -3.7137 C.3       1 <0>        -0.1169
      6 C5         -0.2706   -0.4009   -4.9438 C.3       1 <0>        -0.1177
      7 C6          0.5021   -0.7701   -6.2116 C.3       1 <0>        -0.1218
      8 C7         -0.3224   -0.3853   -7.4417 C.3       1 <0>         0.0551
      9 O1          0.3994   -0.7301   -8.6258 O.3       1 <0>        -0.3061
     10 C8         -0.1964   -0.4531   -9.8131 C.ar      1 <0>         0.1777
     11 C9         -1.4520    0.1459   -9.8354 C.ar      1 <0>        -0.2183
     12 C10        -2.0595    0.4284  -11.0254 C.ar      1 <0>        -0.0112
     13 C11        -1.4200    0.1164  -12.2300 C.ar      1 <0>        -0.2203
     14 C12        -0.1552   -0.4865  -12.2103 C.ar      1 <0>         0.1766
     15 C13         0.4519   -0.7633  -11.0016 C.ar      1 <0>        -0.1897
     16 F1          0.4693   -0.7915  -13.3688 F         1 <0>        -0.1195
     17 C14        -2.0743    0.4202  -13.5148 C.2       1 <0>         0.4504
     18 O2         -2.1121    1.5655  -13.9221 O.2       1 <0>        -0.4242
     19 C15        -2.6844   -0.6667  -14.3083 C.ar      1 <0>        -0.1526
     20 C16        -2.7486   -1.9623  -13.7904 C.ar      1 <0>        -0.0606
     21 C17        -3.3196   -2.9720  -14.5357 C.ar      1 <0>        -0.1029
     22 C18        -3.8286   -2.7039  -15.7956 C.ar      1 <0>        -0.0593
     23 C19        -3.7676   -1.4214  -16.3150 C.ar      1 <0>        -0.1012
     24 C20        -3.2047   -0.4016  -15.5772 C.ar      1 <0>        -0.0511
     25 Br1        -4.6094   -4.0948  -16.8111 Br        1 <0>        -0.0339
     26 C21         0.5997   -0.9235    1.1799 C.3       1 <0>         0.0297
     27 C22        -0.2183   -0.6696    2.4198 C.2       1 <0>        -0.2414
     28 C23        -0.4996   -1.6576    3.2327 C.2       1 <0>        -0.1007
     29 H1          0.6980    1.4787    0.1017 H         1 <0>         0.1224
     30 H2         -0.8332    1.3664   -0.7989 H         1 <0>         0.1241
     31 H3         -0.8376    1.2757    0.9788 H         1 <0>         0.1243
     32 H4          1.5544   -0.2650   -1.2322 H         1 <0>         0.1303
     33 H5          0.7946   -1.8747   -1.2265 H         1 <0>         0.1304
     34 H6         -1.1678   -0.9527   -2.4296 H         1 <0>         0.0873
     35 H7         -0.4080    0.6570   -2.4353 H         1 <0>         0.0883
     36 H8          1.5027   -0.2494   -3.7300 H         1 <0>         0.0768
     37 H9          0.7429   -1.8591   -3.7244 H         1 <0>         0.0769
     38 H10        -1.2195   -0.9371   -4.9275 H         1 <0>         0.0712
     39 H11        -0.4597    0.6726   -4.9332 H         1 <0>         0.0709
     40 H12         1.4509   -0.2338   -6.2279 H         1 <0>         0.0786
     41 H13         0.6912   -1.8435   -6.2222 H         1 <0>         0.0787
     42 H14        -1.2712   -0.9215   -7.4254 H         1 <0>         0.0681
     43 H15        -0.5115    0.6881   -7.4311 H         1 <0>         0.0679
     44 H16        -1.9487    0.3881   -8.9075 H         1 <0>         0.1407
     45 H17        -3.0346    0.8928  -11.0366 H         1 <0>         0.1427
     46 H18         1.4282   -1.2245  -10.9803 H         1 <0>         0.1531
     47 H19        -2.3514   -2.1728  -12.8083 H         1 <0>         0.1369
     48 H20        -3.3698   -3.9742  -14.1363 H         1 <0>         0.1417
     49 H21        -4.1659   -1.2188  -17.2982 H         1 <0>         0.1439
     50 H22        -3.1621    0.5990  -15.9814 H         1 <0>         0.1458
     51 H23         0.7890   -1.9925    1.0821 H         1 <0>         0.1299
     52 H24         1.5483   -0.3919    1.2553 H         1 <0>         0.1340
     53 H25        -0.5727    0.3269    2.6382 H         1 <0>         0.1338
     54 H26        -0.1452   -2.6542    3.0142 H         1 <0>         0.1119
     55 H27        -1.0858   -1.4757    4.1213 H         1 <0>         0.1234
     56 H28        -1.0482   -0.8782   -0.0228 H         1 <0>         0.4251
@<TRIPOS>BOND
     1    1    2 1
     2    1   29 1
     3    1   30 1
     4    1   31 1
     5    2    3 1
     6    2   26 1
     7    2   56 1
     8    3    4 1
     9    3   32 1
    10    3   33 1
    11    4    5 1
    12    4   34 1
    13    4   35 1
    14    5    6 1
    15    5   36 1
    16    5   37 1
    17    6    7 1
    18    6   38 1
    19    6   39 1
    20    7    8 1
    21    7   40 1
    22    7   41 1
    23    8    9 1
    24    8   42 1
    25    8   43 1
    26    9   10 1
    27   10   15 ar
    28   10   11 ar
    29   11   12 ar
    30   11   44 1
    31   12   13 ar
    32   12   45 1
    33   13   14 ar
    34   13   17 1
    35   14   15 ar
    36   14   16 1
    37   15   46 1
    38   17   18 2
    39   17   19 1
    40   19   24 ar
    41   19   20 ar
    42   20   21 ar
    43   20   47 1
    44   21   22 ar
    45   21   48 1
    46   22   23 ar
    47   22   25 1
    48   23   24 ar
    49   23   49 1
    50   24   50 1
    51   26   27 1
    52   26   51 1
    53   26   52 1
    54   27   28 2
    55   27   53 1
    56   28   54 1
    57   28   55 1
@<TRIPOS>MOLECULE
ZINC00598970
   48    51     0     0     0
SMALL
USER_CHARGES
(4-chlorophenyl)-[4-[[4-(4,5-dihydrooxazol-2-yl)phenyl]methylene]-1-piperidyl]-methanone
@<TRIPOS>ATOM
      1 C1          3.9774    3.9468    5.6340 C.ar      1 <0>        -0.1160
      2 C2          3.7267    4.9902    6.4960 C.ar      1 <0>        -0.0744
      3 C3          2.4121    5.3094    6.8424 C.ar      1 <0>        -0.0508
      4 C4          1.3512    4.5737    6.3099 C.ar      1 <0>        -0.0628
      5 C5          1.6012    3.5339    5.4434 C.ar      1 <0>        -0.1236
      6 C6          2.9161    3.2145    5.0968 C.ar      1 <0>        -0.0255
      7 C7          3.1845    2.0988    4.1670 C.2       1 <0>        -0.1276
      8 C8          2.3535    1.8591    3.1611 C.2       1 <0>        -0.0991
      9 C9          2.5067    0.6189    2.3082 C.3       1 <0>        -0.0986
     10 C10         2.5659    1.0469    0.8363 C.3       1 <0>         0.1133
     11 N1          1.4486    1.9604    0.5644 N.am      1 <0>        -0.6047
     12 C11         1.3240    3.1950    1.3498 C.3       1 <0>         0.0955
     13 C12         1.2294    2.8191    2.8391 C.3       1 <0>        -0.1174
     14 C13         0.5511    1.6717   -0.3987 C.2       1 <0>         0.5620
     15 O1          0.7002    0.6846   -1.0924 O.2       1 <0>        -0.5274
     16 C14        -0.6111    2.5585   -0.6154 C.ar      1 <0>        -0.1233
     17 C15        -0.4288    3.9382   -0.7267 C.ar      1 <0>        -0.0815
     18 C16        -1.5165    4.7600   -0.9341 C.ar      1 <0>        -0.1134
     19 C17        -2.7892    4.2203   -1.0211 C.ar      1 <0>        -0.0159
     20 C18        -2.9770    2.8528   -0.9058 C.ar      1 <0>        -0.1114
     21 C19        -1.8963    2.0203   -0.7040 C.ar      1 <0>        -0.0561
     22 Cl1        -4.1544    5.2619   -1.2762 Cl        1 <0>        -0.0589
     23 C20         2.1433    6.4267    7.7728 C.2       1 <0>         0.3456
     24 N2          0.9472    6.7784    8.1304 N.2       1 <0>        -0.5345
     25 C21         1.0550    7.9129    9.0683 C.3       1 <0>        -0.0097
     26 C22         2.5537    7.8720    9.4544 C.3       1 <0>         0.0199
     27 O2          3.1197    7.1780    8.3237 O.3       1 <0>        -0.3410
     28 H1          4.9943    3.6971    5.3696 H         1 <0>         0.1323
     29 H2          4.5470    5.5594    6.9076 H         1 <0>         0.1344
     30 H3          0.3346    4.8205    6.5782 H         1 <0>         0.1398
     31 H4          0.7807    2.9652    5.0313 H         1 <0>         0.1364
     32 H5          4.0573    1.4781    4.3061 H         1 <0>         0.1270
     33 H6          1.6537   -0.0415    2.4643 H         1 <0>         0.0836
     34 H7          3.4267    0.0996    2.5767 H         1 <0>         0.0866
     35 H8          2.4835    0.1682    0.1967 H         1 <0>         0.0990
     36 H9          3.5098    1.5552    0.6391 H         1 <0>         0.0741
     37 H10         2.1988    3.8237    1.1836 H         1 <0>         0.0774
     38 H11         0.4239    3.7306    1.0483 H         1 <0>         0.1015
     39 H12         0.2703    2.3415    3.0393 H         1 <0>         0.0816
     40 H13         1.3269    3.7166    3.4500 H         1 <0>         0.0995
     41 H14         0.5626    4.3605   -0.6549 H         1 <0>         0.1408
     42 H15        -1.3762    5.8270   -1.0248 H         1 <0>         0.1422
     43 H16        -3.9716    2.4377   -0.9744 H         1 <0>         0.1426
     44 H17        -2.0439    0.9542   -0.6149 H         1 <0>         0.1408
     45 H18         0.4233    7.7592    9.9432 H         1 <0>         0.1043
     46 H19         0.8066    8.8505    8.5711 H         1 <0>         0.0945
     47 H20         2.7055    7.3088   10.3753 H         1 <0>         0.0853
     48 H21         2.9637    8.8782    9.5415 H         1 <0>         0.1137
@<TRIPOS>BOND
     1    1    6 ar
     2    1    2 ar
     3    1   28 1
     4    2    3 ar
     5    2   29 1
     6    3    4 ar
     7    3   23 1
     8    4    5 ar
     9    4   30 1
    10    5    6 ar
    11    5   31 1
    12    6    7 1
    13    7    8 2
    14    7   32 1
    15    8   13 1
    16    8    9 1
    17    9   10 1
    18    9   33 1
    19    9   34 1
    20   10   11 1
    21   10   35 1
    22   10   36 1
    23   11   12 1
    24   11   14 am
    25   12   13 1
    26   12   37 1
    27   12   38 1
    28   13   39 1
    29   13   40 1
    30   14   15 2
    31   14   16 1
    32   16   21 ar
    33   16   17 ar
    34   17   18 ar
    35   17   41 1
    36   18   19 ar
    37   18   42 1
    38   19   20 ar
    39   19   22 1
    40   20   21 ar
    41   20   43 1
    42   21   44 1
    43   23   27 1
    44   23   24 2
    45   24   25 1
    46   25   26 1
    47   25   45 1
    48   25   46 1
    49   26   27 1
    50   26   47 1
    51   26   48 1
