@<TRIPOS>MOLECULE
ZINC00870710
   36    38     0     0     0
SMALL
USER_CHARGES

@<TRIPOS>ATOM
      1 C1         -0.0187    1.5258    0.0104 C.3       1 <0>        -0.1539
      2 C2          0.0021   -0.0041    0.0020 C.3       1 <0>        -0.1164
      3 C3         -1.4333   -0.5336    0.0129 C.3       1 <0>        -0.0714
      4 C4         -1.4129   -2.0405    0.0046 C.ar      1 <0>         0.1397
      5 C5         -2.0873   -2.7355    0.9872 C.ar      1 <0>        -0.1466
      6 C6         -2.0610   -4.1346    0.9681 C.ar      1 <0>         0.0328
      7 C7         -1.3458   -4.7678   -0.0554 C.ar      1 <0>        -0.1328
      8 C8         -0.7003   -3.9944   -0.9973 C.ar      1 <0>         0.1107
      9 N1         -0.7548   -2.6770   -0.9453 N.ar      1 <0>        -0.4688
     10 C9         -2.7684   -4.9222    2.0004 C.2       1 <0>         0.1486
     11 N2         -2.8484   -6.2354    2.1432 N.2       1 <0>        -0.4788
     12 C10        -3.5300   -6.7775    3.1332 C.2       1 <0>         0.0952
     13 C11        -4.1697   -5.9645    4.0343 C.2       1 <0>        -0.1833
     14 S1         -3.7362   -4.3531    3.3915 S.3       1 <0>         0.0484
     15 C12        -3.6048   -8.2528    3.2711 C.ar      1 <0>        -0.0117
     16 C13        -4.3316   -8.8214    4.3154 C.ar      1 <0>        -0.0992
     17 C14        -4.3984  -10.1942    4.4390 C.ar      1 <0>        -0.0893
     18 C15        -3.7452  -11.0061    3.5279 C.ar      1 <0>        -0.0850
     19 C16        -3.0216  -10.4463    2.4891 C.ar      1 <0>        -0.0913
     20 C17        -2.9533   -9.0747    2.3534 C.ar      1 <0>        -0.0800
     21 Br1        -3.8411  -12.8865    3.7033 Br        1 <0>        -0.0459
     22 H1          1.0039    1.9031    0.0027 H         1 <0>         0.0565
     23 H2         -0.5459    1.8868   -0.8726 H         1 <0>         0.0560
     24 H3         -0.5289    1.8773    0.9072 H         1 <0>         0.0539
     25 H4          0.5123   -0.3556   -0.8948 H         1 <0>         0.0747
     26 H5          0.5293   -0.3651    0.8851 H         1 <0>         0.0596
     27 H6         -1.9435   -0.1821    0.9097 H         1 <0>         0.0805
     28 H7         -1.9605   -0.1726   -0.8702 H         1 <0>         0.0872
     29 H8         -2.6270   -2.2078    1.7596 H         1 <0>         0.1390
     30 H9         -1.3000   -5.8457   -0.1063 H         1 <0>         0.1477
     31 H10        -0.1457   -4.4736   -1.7906 H         1 <0>         0.1664
     32 H11        -4.7666   -6.2255    4.8958 H         1 <0>         0.2059
     33 H12        -4.8413   -8.1888    5.0270 H         1 <0>         0.1344
     34 H13        -4.9610  -10.6359    5.2481 H         1 <0>         0.1382
     35 H14        -2.5134  -11.0841    1.7811 H         1 <0>         0.1372
     36 H15        -2.3924   -8.6389    1.5397 H         1 <0>         0.1420
@<TRIPOS>BOND
     1    1    2 1
     2    1   22 1
     3    1   23 1
     4    1   24 1
     5    2    3 1
     6    2   25 1
     7    2   26 1
     8    3    4 1
     9    3   27 1
    10    3   28 1
    11    4    9 ar
    12    4    5 ar
    13    5    6 ar
    14    5   29 1
    15    6    7 ar
    16    6   10 1
    17    7    8 ar
    18    7   30 1
    19    8    9 ar
    20    8   31 1
    21   10   14 1
    22   10   11 2
    23   11   12 1
    24   12   13 2
    25   12   15 1
    26   13   14 1
    27   13   32 1
    28   15   20 ar
    29   15   16 ar
    30   16   17 ar
    31   16   33 1
    32   17   18 ar
    33   17   34 1
    34   18   19 ar
    35   18   21 1
    36   19   20 ar
    37   19   35 1
    38   20   36 1
@<TRIPOS>MOLECULE
ZINC02262581
   39    41     0     0     0
SMALL
USER_CHARGES

@<TRIPOS>ATOM
      1 C1         -0.0187    1.5258    0.0104 C.3       1 <0>        -0.1538
      2 C2          0.0021   -0.0041    0.0020 C.3       1 <0>        -0.1164
      3 C3          0.7421   -0.5109    1.2415 C.3       1 <0>        -0.0712
      4 C4          0.7625   -2.0177    1.2333 C.ar      1 <0>         0.1392
      5 C5          1.9677   -2.6824    1.3284 C.ar      1 <0>        -0.1471
      6 C6          1.9732   -4.0819    1.3196 C.ar      1 <0>         0.0345
      7 C7          0.7456   -4.7464    1.2138 C.ar      1 <0>        -0.1334
      8 C8         -0.4119   -4.0022    1.1231 C.ar      1 <0>         0.1103
      9 N1         -0.3728   -2.6833    1.1405 N.ar      1 <0>        -0.4696
     10 C9          3.2403   -4.8375    1.4188 C.2       1 <0>         0.1461
     11 N2          3.4370   -6.1462    1.4209 N.2       1 <0>        -0.4787
     12 C10         4.6483   -6.6576    1.5177 C.2       1 <0>         0.1021
     13 C11         5.7278   -5.8170    1.6183 C.2       1 <0>        -0.1883
     14 S1          4.9140   -4.2257    1.5599 S.3       1 <0>         0.0398
     15 C12         4.8421   -8.1285    1.5182 C.ar      1 <0>        -0.0370
     16 C13         6.1237   -8.6650    1.6269 C.ar      1 <0>        -0.0990
     17 C14         6.2982  -10.0341    1.6268 C.ar      1 <0>        -0.1212
     18 C15         5.2039  -10.8733    1.5185 C.ar      1 <0>        -0.0765
     19 C16         3.9296  -10.3463    1.4099 C.ar      1 <0>        -0.1234
     20 C17         3.7428   -8.9789    1.4156 C.ar      1 <0>        -0.0801
     21 C18         5.4008  -12.3674    1.5185 C.3       1 <0>        -0.1183
     22 H1          1.0039    1.9031    0.0027 H         1 <0>         0.0539
     23 H2         -0.5459    1.8868   -0.8726 H         1 <0>         0.0564
     24 H3         -0.5289    1.8773    0.9072 H         1 <0>         0.0559
     25 H4         -1.0205   -0.3814    0.0098 H         1 <0>         0.0746
     26 H5          0.5123   -0.3556   -0.8948 H         1 <0>         0.0596
     27 H6          1.7647   -0.1336    1.2338 H         1 <0>         0.0804
     28 H7          0.2319   -0.1594    2.1383 H         1 <0>         0.0869
     29 H8          2.8930   -2.1311    1.4082 H         1 <0>         0.1389
     30 H9          0.7057   -5.8257    1.2030 H         1 <0>         0.1474
     31 H10        -1.3638   -4.5057    1.0411 H         1 <0>         0.1661
     32 H11         6.7786   -6.0513    1.7046 H         1 <0>         0.2041
     33 H12         6.9788   -8.0107    1.7107 H         1 <0>         0.1244
     34 H13         7.2909  -10.4509    1.7110 H         1 <0>         0.1267
     35 H14         3.0788  -11.0062    1.3253 H         1 <0>         0.1258
     36 H15         2.7469   -8.5685    1.3360 H         1 <0>         0.1321
     37 H16         5.3564  -12.7397    2.5419 H         1 <0>         0.0729
     38 H17         4.6155  -12.8373    0.9264 H         1 <0>         0.0681
     39 H18         6.3730  -12.6057    1.0870 H         1 <0>         0.0679
@<TRIPOS>BOND
     1    1    2 1
     2    1   22 1
     3    1   23 1
     4    1   24 1
     5    2    3 1
     6    2   25 1
     7    2   26 1
     8    3    4 1
     9    3   27 1
    10    3   28 1
    11    4    9 ar
    12    4    5 ar
    13    5    6 ar
    14    5   29 1
    15    6    7 ar
    16    6   10 1
    17    7    8 ar
    18    7   30 1
    19    8    9 ar
    20    8   31 1
    21   10   14 1
    22   10   11 2
    23   11   12 1
    24   12   13 2
    25   12   15 1
    26   13   14 1
    27   13   32 1
    28   15   20 ar
    29   15   16 ar
    30   16   17 ar
    31   16   33 1
    32   17   18 ar
    33   17   34 1
    34   18   19 ar
    35   18   21 1
    36   19   20 ar
    37   19   35 1
    38   20   36 1
    39   21   37 1
    40   21   38 1
    41   21   39 1
@<TRIPOS>MOLECULE
ZINC05751264
   75    78     0     0     0
SMALL
USER_CHARGES

@<TRIPOS>ATOM
      1 C1          0.2052    1.4982    0.1222 C.3       1 <0>        -0.1546
      2 C2          0.0008   -0.0133    0.0018 C.3       1 <0>        -0.0843
      3 H1         -1.0656   -0.2383    0.0192 H         1 <0>         0.0761
      4 C3          0.6894   -0.7160    1.1736 C.3       1 <0>        -0.1180
      5 C4          0.0032   -0.3176    2.4817 C.3       1 <0>        -0.1182
      6 C5          0.6918   -1.0203    3.6534 C.3       1 <0>        -0.1053
      7 C6          0.0056   -0.6219    4.9616 C.3       1 <0>         0.1245
      8 C7          0.7696   -1.2243    6.1424 C.3       1 <0>        -0.1803
      9 C8         -0.0073    0.9029    5.0870 C.3       1 <0>        -0.1815
     10 O1         -1.3370   -1.1114    4.9635 O.3       1 <0>        -0.5598
     11 C9          0.6045   -0.5064   -1.3147 C.3       1 <0>        -0.0721
     12 H2          1.6550   -0.2225   -1.3775 H         1 <0>         0.0688
     13 C10         0.4563   -2.0440   -1.4305 C.3       1 <0>        -0.1208
     14 C11        -0.3345   -2.3103   -2.7404 C.3       1 <0>        -0.1166
     15 C12        -0.0564   -1.0524   -3.5705 C.3       1 <0>        -0.0828
     16 H3          0.9532   -1.0842   -3.9801 H         1 <0>         0.0713
     17 C13        -0.1693    0.0659   -2.4981 C.3       1 <0>        -0.0547
     18 C14         0.3845    1.3358   -3.1159 C.3       1 <0>        -0.1063
     19 C15        -0.5453    1.7164   -4.2785 C.3       1 <0>        -0.1202
     20 C16        -0.6557    0.5932   -5.3058 C.3       1 <0>        -0.0667
     21 H4          0.3219    0.4517   -5.7668 H         1 <0>         0.0625
     22 C17        -1.0608   -0.7497   -4.6679 C.3       1 <0>        -0.0688
     23 H5         -2.0643   -0.6727   -4.2496 H         1 <0>         0.0812
     24 C18        -0.9950   -1.8443   -5.7388 C.3       1 <0>        -0.0827
     25 C19        -1.8632   -1.4532   -6.8990 C.2       1 <0>        -0.1537
     26 C20        -2.1362   -0.2162   -7.1944 C.2       1 <0>        -0.1060
     27 C21        -1.6444    0.9858   -6.3910 C.3       1 <0>        -0.0115
     28 C22        -0.9979    1.9889   -7.3506 C.3       1 <0>        -0.1053
     29 C23        -1.9995    2.3622   -8.4453 C.3       1 <0>        -0.1127
     30 C24        -2.3551    1.1202   -9.2644 C.3       1 <0>         0.1097
     31 H6         -1.4443    0.6787   -9.6690 H         1 <0>         0.0483
     32 C25        -3.0207    0.0577   -8.3993 C.3       1 <0>        -0.1197
     33 O2         -3.2229    1.4899  -10.3379 O.3       1 <0>        -0.5681
     34 C26        -2.8321    1.6835   -5.7252 C.3       1 <0>        -0.1485
     35 C27        -1.6357    0.2673   -2.1111 C.3       1 <0>        -0.1510
     36 H7          1.2717    1.7178    0.1713 H         1 <0>         0.0510
     37 H8         -0.2282    1.9937   -0.7466 H         1 <0>         0.0627
     38 H9         -0.2823    1.8598    1.0275 H         1 <0>         0.0523
     39 H10         0.6202   -1.7957    1.0411 H         1 <0>         0.0631
     40 H11         1.7380   -0.4207    1.2088 H         1 <0>         0.0573
     41 H12         0.0723    0.7621    2.6141 H         1 <0>         0.0646
     42 H13        -1.0455   -0.6129    2.4465 H         1 <0>         0.0672
     43 H14         0.6226   -2.1000    3.5210 H         1 <0>         0.0676
     44 H15         1.7404   -0.7250    3.6887 H         1 <0>         0.0720
     45 H16         1.7937   -0.8510    6.1409 H         1 <0>         0.0650
     46 H17         0.2808   -0.9405    7.0743 H         1 <0>         0.0575
     47 H18         0.7788   -2.3106    6.0530 H         1 <0>         0.0631
     48 H19        -0.5517    1.3320    4.2458 H         1 <0>         0.0681
     49 H20        -0.4962    1.1867    6.0189 H         1 <0>         0.0556
     50 H21         1.0168    1.2762    5.0855 H         1 <0>         0.0646
     51 H22        -1.8334   -0.8951    5.7647 H         1 <0>         0.3743
     52 H23         1.4394   -2.5115   -1.4853 H         1 <0>         0.0599
     53 H24        -0.0958   -2.4321   -0.5746 H         1 <0>         0.0666
     54 H25         0.0451   -3.1980   -3.2464 H         1 <0>         0.0613
     55 H26        -1.4003   -2.4087   -2.5343 H         1 <0>         0.0661
     56 H27         0.3978    2.1344   -2.3742 H         1 <0>         0.0675
     57 H28         1.3928    1.1580   -3.4896 H         1 <0>         0.0603
     58 H29        -1.5373    1.9350   -3.8831 H         1 <0>         0.0745
     59 H30        -0.1550    2.6086   -4.7681 H         1 <0>         0.0595
     60 H31         0.0345   -1.9609   -6.0774 H         1 <0>         0.0717
     61 H32        -1.3500   -2.7857   -5.3195 H         1 <0>         0.0705
     62 H33        -2.2800   -2.2346   -7.5171 H         1 <0>         0.1030
     63 H34        -0.7099    2.8848   -6.8005 H         1 <0>         0.0731
     64 H35        -0.1139    1.5406   -7.8041 H         1 <0>         0.0634
     65 H36        -2.9028    2.7658   -7.9880 H         1 <0>         0.0741
     66 H37        -1.5581    3.1140   -9.0996 H         1 <0>         0.0708
     67 H38        -3.1818   -0.8666   -8.9542 H         1 <0>         0.0725
     68 H39        -3.9783    0.4594   -8.0681 H         1 <0>         0.0760
     69 H40        -3.4898    0.7501  -10.9004 H         1 <0>         0.3778
     70 H41        -2.4830    2.5710   -5.1975 H         1 <0>         0.0652
     71 H42        -3.5558    1.9747   -6.4865 H         1 <0>         0.0567
     72 H43        -3.3038    1.0019   -5.0173 H         1 <0>         0.0549
     73 H44        -1.7075    1.0469   -1.3526 H         1 <0>         0.0597
     74 H45        -2.2065    0.5631   -2.9913 H         1 <0>         0.0612
     75 H46        -2.0379   -0.6645   -1.7135 H         1 <0>         0.0550
@<TRIPOS>BOND
     1    1    2 1
     2    1   36 1
     3    1   37 1
     4    1   38 1
     5    2    3 1
     6    2    4 1
     7    2   11 1
     8    4    5 1
     9    4   39 1
    10    4   40 1
    11    5    6 1
    12    5   41 1
    13    5   42 1
    14    6    7 1
    15    6   43 1
    16    6   44 1
    17    7    8 1
    18    7    9 1
    19    7   10 1
    20    8   45 1
    21    8   46 1
    22    8   47 1
    23    9   48 1
    24    9   49 1
    25    9   50 1
    26   10   51 1
    27   11   12 1
    28   11   17 1
    29   11   13 1
    30   13   14 1
    31   13   52 1
    32   13   53 1
    33   14   15 1
    34   14   54 1
    35   14   55 1
    36   15   16 1
    37   15   22 1
    38   15   17 1
    39   17   18 1
    40   17   35 1
    41   18   19 1
    42   18   56 1
    43   18   57 1
    44   19   20 1
    45   19   58 1
    46   19   59 1
    47   20   21 1
    48   20   27 1
    49   20   22 1
    50   22   23 1
    51   22   24 1
    52   24   25 1
    53   24   60 1
    54   24   61 1
    55   25   26 2
    56   25   62 1
    57   26   32 1
    58   26   27 1
    59   27   28 1
    60   27   34 1
    61   28   29 1
    62   28   63 1
    63   28   64 1
    64   29   30 1
    65   29   65 1
    66   29   66 1
    67   30   31 1
    68   30   32 1
    69   30   33 1
    70   32   67 1
    71   32   68 1
    72   33   69 1
    73   34   70 1
    74   34   71 1
    75   34   72 1
    76   35   73 1
    77   35   74 1
    78   35   75 1
@<TRIPOS>MOLECULE
ZINC06719711
   40    42     0     0     0
SMALL
USER_CHARGES
4-[4-(2-methoxyphenyl)thiazol-2-yl]-2-propyl-pyridine
@<TRIPOS>ATOM
      1 C1         -2.2199  -10.9714    1.1461 C.3       1 <0>        -0.1537
      2 C2         -2.4300   -9.4559    1.1568 C.3       1 <0>        -0.1162
      3 C3         -1.6926   -8.8304   -0.0289 C.3       1 <0>        -0.0707
      4 C4         -1.8995   -7.3377   -0.0184 C.ar      1 <0>         0.1378
      5 C5         -0.8043   -6.4989   -0.0248 C.ar      1 <0>        -0.1484
      6 C6         -1.0099   -5.1146   -0.0154 C.ar      1 <0>         0.0379
      7 C7         -2.3278   -4.6428    0.0057 C.ar      1 <0>        -0.1317
      8 C8         -3.3638   -5.5531    0.0057 C.ar      1 <0>         0.1081
      9 N1         -3.1256   -6.8510   -0.0036 N.ar      1 <0>        -0.4710
     10 C9          0.1330   -4.1765   -0.0212 C.2       1 <0>         0.1423
     11 N2          0.1302   -2.8529   -0.0141 N.2       1 <0>        -0.4514
     12 C10         1.2547   -2.1647   -0.0211 C.2       1 <0>         0.1102
     13 C11         2.4528   -2.8329   -0.0414 C.2       1 <0>        -0.1934
     14 S1          1.8854   -4.5288   -0.0399 S.3       1 <0>         0.0270
     15 C12         1.2248   -0.6816   -0.0133 C.ar      1 <0>        -0.0680
     16 C13         2.4149    0.0422   -0.0209 C.ar      1 <0>        -0.0647
     17 C14         2.3818    1.4221   -0.0131 C.ar      1 <0>        -0.1590
     18 C15         1.1700    2.0898    0.0021 C.ar      1 <0>        -0.0688
     19 C16        -0.0167    1.3811    0.0096 C.ar      1 <0>        -0.2149
     20 C17         0.0021   -0.0041    0.0020 C.ar      1 <0>         0.1603
     21 O1         -1.1639   -0.7018    0.0099 O.3       1 <0>        -0.2783
     22 C18        -2.3743    0.0577    0.0260 C.3       1 <0>         0.0198
     23 H1         -2.6096  -11.3857    0.2163 H         1 <0>         0.0558
     24 H2         -1.1551  -11.1911    1.2236 H         1 <0>         0.0538
     25 H3         -2.7452  -11.4170    1.9909 H         1 <0>         0.0562
     26 H4         -2.0402   -9.0416    2.0866 H         1 <0>         0.0594
     27 H5         -3.4948   -9.2362    1.0793 H         1 <0>         0.0744
     28 H6         -2.0823   -9.2447   -0.9587 H         1 <0>         0.0863
     29 H7         -0.6278   -9.0501    0.0486 H         1 <0>         0.0799
     30 H8          0.1967   -6.9044   -0.0365 H         1 <0>         0.1381
     31 H9         -2.5302   -3.5820    0.0176 H         1 <0>         0.1487
     32 H10        -4.3841   -5.1989    0.0181 H         1 <0>         0.1645
     33 H11         3.4598   -2.4428   -0.0534 H         1 <0>         0.2027
     34 H12         3.3625   -0.4758   -0.0324 H         1 <0>         0.1312
     35 H13         3.3050    1.9826   -0.0193 H         1 <0>         0.1292
     36 H14         1.1513    3.1697    0.0078 H         1 <0>         0.1276
     37 H15        -0.9595    1.9078    0.0170 H         1 <0>         0.1316
     38 H16        -2.4001    0.6812    0.9197 H         1 <0>         0.0537
     39 H17        -2.4178    0.6908   -0.8602 H         1 <0>         0.0536
     40 H18        -3.2282   -0.6197    0.0309 H         1 <0>         0.1002
@<TRIPOS>BOND
     1    1    2 1
     2    1   23 1
     3    1   24 1
     4    1   25 1
     5    2    3 1
     6    2   26 1
     7    2   27 1
     8    3    4 1
     9    3   28 1
    10    3   29 1
    11    4    9 ar
    12    4    5 ar
    13    5    6 ar
    14    5   30 1
    15    6    7 ar
    16    6   10 1
    17    7    8 ar
    18    7   31 1
    19    8    9 ar
    20    8   32 1
    21   10   14 1
    22   10   11 2
    23   11   12 1
    24   12   13 2
    25   12   15 1
    26   13   14 1
    27   13   33 1
    28   15   20 ar
    29   15   16 ar
    30   16   17 ar
    31   16   34 1
    32   17   18 ar
    33   17   35 1
    34   18   19 ar
    35   18   36 1
    36   19   20 ar
    37   19   37 1
    38   20   21 1
    39   21   22 1
    40   22   38 1
    41   22   39 1
    42   22   40 1
