@<TRIPOS>MOLECULE
ZINC21982951
   60    63     0     0     0
SMALL
USER_CHARGES

@<TRIPOS>ATOM
      1 C1         -2.0700    1.6928    0.2333 C.3       1 <0>        -0.1170
      2 C2         -1.6482    0.2604    0.0301 C.ar      1 <0>        -0.0813
      3 C3         -1.8479   -0.3525   -1.1919 C.ar      1 <0>        -0.1034
      4 C4         -1.4615   -1.6665   -1.3798 C.ar      1 <0>        -0.0990
      5 C5         -0.8738   -2.3725   -0.3459 C.ar      1 <0>        -0.1046
      6 C6         -0.6714   -1.7660    0.8791 C.ar      1 <0>        -0.0220
      7 C7         -1.0534   -0.4428    1.0688 C.ar      1 <0>         0.1347
      8 N1         -0.8441    0.1769    2.3055 N.am      1 <0>        -0.6659
      9 C8         -1.2819   -0.4110    3.4365 C.2       1 <0>         0.6018
     10 O1         -1.7689   -1.5261    3.3939 O.2       1 <0>        -0.4722
     11 C9         -1.1720    0.2905    4.7149 C.2       1 <0>        -0.2635
     12 C10        -1.5472   -0.1201    5.9866 C.2       1 <0>         0.1512
     13 N2         -1.3262    0.7270    6.9599 N.2       1 <0>        -0.5510
     14 C11        -0.7756    1.9070    6.7361 C.2       1 <0>         0.2513
     15 S1         -0.5107    1.9100    5.0742 S.3       1 <0>         0.2445
     16 N3         -0.4817    2.8997    7.6498 N.pl3     1 <0>        -0.5870
     17 C12        -0.6908    2.6801    9.0050 C.ar      1 <0>         0.4543
     18 C13        -1.0534    1.4192    9.4679 C.ar      1 <0>        -0.2926
     19 C14        -1.2512    1.2508   10.8352 C.ar      1 <0>         0.4935
     20 N4         -1.0875    2.2952   11.6453 N.ar      1 <0>        -0.5328
     21 C15        -0.7435    3.4737   11.1677 C.ar      1 <0>         0.4541
     22 N5         -0.5417    3.6719    9.8809 N.ar      1 <0>        -0.5672
     23 C16        -0.5694    4.6273   12.1217 C.3       1 <0>        -0.1251
     24 N6         -1.6138    0.0143   11.3464 N.pl3     1 <0>        -0.5370
     25 C17        -2.0559   -0.1253   12.7422 C.3       1 <0>         0.1090
     26 C18        -3.3866   -0.8852   12.7576 C.3       1 <0>         0.0383
     27 N7         -3.2335   -2.1493   12.0251 N.3       1 <0>        -0.5289
     28 C19        -2.9165   -1.9105   10.6107 C.3       1 <0>         0.0343
     29 C20        -1.5725   -1.1917   10.5056 C.3       1 <0>         0.1057
     30 C21        -4.4334   -2.9856   12.1619 C.3       1 <0>         0.0545
     31 C22        -4.1483   -4.3816   11.6043 C.3       1 <0>         0.0776
     32 O2         -3.1500   -5.0191   12.4038 O.3       1 <0>        -0.5606
     33 Cl1         0.0658   -2.6526    2.1768 Cl        1 <0>        -0.0453
     34 H1         -1.2464    2.3553   -0.0328 H         1 <0>         0.0773
     35 H2         -2.9308    1.9112   -0.3987 H         1 <0>         0.0785
     36 H3         -2.3379    1.8478    1.2784 H         1 <0>         0.0640
     37 H4         -2.3069    0.1956   -2.0014 H         1 <0>         0.1372
     38 H5         -1.6193   -2.1430   -2.3361 H         1 <0>         0.1391
     39 H6         -0.5731   -3.3989   -0.4959 H         1 <0>         0.1403
     40 H7         -0.3838    1.0296    2.3489 H         1 <0>         0.4083
     41 H8         -1.9972   -1.0858    6.1634 H         1 <0>         0.2027
     42 H9         -0.1293    3.7505    7.3451 H         1 <0>         0.4460
     43 H10        -1.1784    0.5927    8.7841 H         1 <0>         0.2218
     44 H11         0.4644    4.6619   12.4652 H         1 <0>         0.1245
     45 H12        -0.8146    5.5596   11.6130 H         1 <0>         0.1071
     46 H13        -1.2322    4.4948   12.9768 H         1 <0>         0.1273
     47 H14        -1.3096   -0.6823   13.3087 H         1 <0>         0.0989
     48 H15        -2.1929    0.8619   13.1834 H         1 <0>         0.1094
     49 H16        -3.6740   -1.0944   13.7880 H         1 <0>         0.1036
     50 H17        -4.1569   -0.2794   12.2806 H         1 <0>         0.0428
     51 H18        -2.8631   -2.8634   10.0841 H         1 <0>         0.1043
     52 H19        -3.6935   -1.2904   10.1636 H         1 <0>         0.0450
     53 H20        -1.3900   -0.9091    9.4688 H         1 <0>         0.1029
     54 H21        -0.7788   -1.8532   10.8529 H         1 <0>         0.1042
     55 H22        -4.7041   -3.0633   13.2149 H         1 <0>         0.0912
     56 H23        -5.2561   -2.5340   11.6075 H         1 <0>         0.0533
     57 H24        -5.0627   -4.9745   11.6240 H         1 <0>         0.0547
     58 H25        -3.7921   -4.2970   10.5776 H         1 <0>         0.0454
     59 H26        -2.9188   -5.9101   12.1076 H         1 <0>         0.3805
     60 H27        -0.2852    4.5531    9.5669 H         1 <0>         0.4414
@<TRIPOS>BOND
     1    1    2 1
     2    1   34 1
     3    1   35 1
     4    1   36 1
     5    2    7 ar
     6    2    3 ar
     7    3    4 ar
     8    3   37 1
     9    4    5 ar
    10    4   38 1
    11    5    6 ar
    12    5   39 1
    13    6    7 ar
    14    6   33 1
    15    7    8 1
    16    8    9 am
    17    8   40 1
    18    9   10 2
    19    9   11 1
    20   11   15 1
    21   11   12 2
    22   12   13 1
    23   12   41 1
    24   13   14 2
    25   14   15 1
    26   14   16 1
    27   16   17 1
    28   16   42 1
    29   17   22 ar
    30   17   18 ar
    31   18   19 ar
    32   18   43 1
    33   19   20 ar
    34   19   24 1
    35   20   21 ar
    36   21   22 ar
    37   21   23 1
    38   22   60 1
    39   23   44 1
    40   23   45 1
    41   23   46 1
    42   24   29 1
    43   24   25 1
    44   25   26 1
    45   25   47 1
    46   25   48 1
    47   26   27 1
    48   26   49 1
    49   26   50 1
    50   27   28 1
    51   27   30 1
    52   28   29 1
    53   28   51 1
    54   28   52 1
    55   29   53 1
    56   29   54 1
    57   30   31 1
    58   30   55 1
    59   30   56 1
    60   31   32 1
    61   31   57 1
    62   31   58 1
    63   32   59 1
@<TRIPOS>MOLECULE
ZINC21982951
   60    63     0     0     0
SMALL
USER_CHARGES

@<TRIPOS>ATOM
      1 C1          3.2739    6.6585    1.8418 C.3       1 <0>        -0.1168
      2 C2          2.5810    7.9910    1.9663 C.ar      1 <0>        -0.0823
      3 C3          2.8983    9.0189    1.0995 C.ar      1 <0>        -0.1038
      4 C4          2.2635   10.2419    1.2126 C.ar      1 <0>        -0.1008
      5 C5          1.3088   10.4411    2.1933 C.ar      1 <0>        -0.1049
      6 C6          0.9869    9.4175    3.0639 C.ar      1 <0>        -0.0226
      7 C7          1.6192    8.1849    2.9486 C.ar      1 <0>         0.1373
      8 N1          1.2913    7.1440    3.8238 N.am      1 <0>        -0.6678
      9 C8          1.3128    7.3511    5.1554 C.2       1 <0>         0.6036
     10 O1          1.5184    8.4680    5.5945 O.2       1 <0>        -0.4759
     11 C9          1.0891    6.2346    6.0728 C.2       1 <0>        -0.2694
     12 C10         1.0619    6.2190    7.4604 C.2       1 <0>         0.1522
     13 N2          0.8357    5.0596    8.0247 N.2       1 <0>        -0.5060
     14 C11         0.6446    3.9678    7.3056 C.2       1 <0>         0.2464
     15 S1          0.7674    4.5141    5.7185 S.3       1 <0>         0.2029
     16 N3          0.3973    2.6842    7.7505 N.pl3     1 <0>        -0.5650
     17 C12         0.2197    2.4414    9.1063 C.ar      1 <0>         0.4999
     18 C13        -0.1342    1.1736    9.5555 C.ar      1 <0>        -0.3181
     19 C14        -0.3003    0.9817   10.9244 C.ar      1 <0>         0.4940
     20 N4         -0.1157    2.0114   11.7481 N.ar      1 <0>        -0.5712
     21 C15         0.2193    3.1978   11.2829 C.ar      1 <0>         0.4509
     22 N5          0.3911    3.4178    9.9956 N.ar      1 <0>        -0.4879
     23 C16         0.4179    4.3344   12.2523 C.3       1 <0>        -0.1253
     24 N6         -0.6531   -0.2629   11.4224 N.pl3     1 <0>        -0.5744
     25 C17        -0.9639   -0.4449   12.8484 C.3       1 <0>         0.1013
     26 C18        -2.3114   -1.1652   12.9649 C.3       1 <0>         0.0387
     27 N7         -2.2712   -2.4031   12.1749 N.3       1 <0>        -0.5277
     28 C19        -2.0835   -2.1176   10.7462 C.3       1 <0>         0.0305
     29 C20        -0.7325   -1.4351   10.5377 C.3       1 <0>         0.1149
     30 C21        -3.4796   -3.2085   12.3965 C.3       1 <0>         0.0543
     31 C22        -3.2958   -4.5889   11.7629 C.3       1 <0>         0.0774
     32 O2         -2.2472   -5.2869   12.4378 O.3       1 <0>        -0.5615
     33 Cl1        -0.2110    9.6681    4.2952 Cl        1 <0>        -0.0453
     34 H1          2.7121    6.0191    1.1609 H         1 <0>         0.0767
     35 H2          4.2810    6.8077    1.4524 H         1 <0>         0.0779
     36 H3          3.3298    6.1850    2.8220 H         1 <0>         0.0648
     37 H4          3.6435    8.8670    0.3327 H         1 <0>         0.1365
     38 H5          2.5139   11.0437    0.5337 H         1 <0>         0.1383
     39 H6          0.8148   11.3976    2.2790 H         1 <0>         0.1396
     40 H7          1.0484    6.2731    3.4723 H         1 <0>         0.4083
     41 H8          1.2191    7.1147    8.0430 H         1 <0>         0.1979
     42 H9          0.3477    1.9521    7.1161 H         1 <0>         0.4525
     43 H10        -0.2767    0.3593    8.8606 H         1 <0>         0.1835
     44 H11         1.4596    4.3615   12.5720 H         1 <0>         0.1250
     45 H12         0.1626    5.2758   11.7656 H         1 <0>         0.1301
     46 H13        -0.2249    4.1881   13.1203 H         1 <0>         0.1049
     47 H14        -0.1857   -1.0458   13.3190 H         1 <0>         0.1119
     48 H15        -1.0251    0.5276   13.3369 H         1 <0>         0.0843
     49 H16        -2.5057   -1.4068   14.0099 H         1 <0>         0.1076
     50 H17        -3.1034   -0.5184   12.5874 H         1 <0>         0.0465
     51 H18        -2.1124   -3.0499   10.1822 H         1 <0>         0.1076
     52 H19        -2.8786   -1.4576   10.3996 H         1 <0>         0.0467
     53 H20        -0.6409   -1.1170    9.4992 H         1 <0>         0.1034
     54 H21         0.0684   -2.1330   10.7819 H         1 <0>         0.1075
     55 H22        -3.6507   -3.3200   13.4672 H         1 <0>         0.0925
     56 H23        -4.3362   -2.7111   11.9416 H         1 <0>         0.0553
     57 H24        -4.2233   -5.1548   11.8494 H         1 <0>         0.0565
     58 H25        -3.0370   -4.4741   10.7103 H         1 <0>         0.0456
     59 H26        -2.0752   -6.1719   12.0881 H         1 <0>         0.3821
     60 H27        -0.2297    1.8867   12.7033 H         1 <0>         0.4392
@<TRIPOS>BOND
     1    1    2 1
     2    1   34 1
     3    1   35 1
     4    1   36 1
     5    2    7 ar
     6    2    3 ar
     7    3    4 ar
     8    3   37 1
     9    4    5 ar
    10    4   38 1
    11    5    6 ar
    12    5   39 1
    13    6    7 ar
    14    6   33 1
    15    7    8 1
    16    8    9 am
    17    8   40 1
    18    9   10 2
    19    9   11 1
    20   11   15 1
    21   11   12 2
    22   12   13 1
    23   12   41 1
    24   13   14 2
    25   14   15 1
    26   14   16 1
    27   16   17 1
    28   16   42 1
    29   17   18 ar
    30   17   22 ar
    31   18   43 1
    32   18   19 ar
    33   19   24 1
    34   19   20 ar
    35   20   60 1
    36   20   21 ar
    37   21   23 1
    38   21   22 ar
    39   23   44 1
    40   23   45 1
    41   23   46 1
    42   24   29 1
    43   24   25 1
    44   25   26 1
    45   25   47 1
    46   25   48 1
    47   26   27 1
    48   26   49 1
    49   26   50 1
    50   27   28 1
    51   27   30 1
    52   28   29 1
    53   28   51 1
    54   28   52 1
    55   29   53 1
    56   29   54 1
    57   30   31 1
    58   30   55 1
    59   30   56 1
    60   31   32 1
    61   31   57 1
    62   31   58 1
    63   32   59 1
@<TRIPOS>MOLECULE
ZINC21982951
   59    62     0     0     0
SMALL
USER_CHARGES

@<TRIPOS>ATOM
      1 C1          3.4106    6.6420    1.8847 C.3       1 <0>        -0.1165
      2 C2          2.6976    7.9659    1.9845 C.ar      1 <0>        -0.0852
      3 C3          3.0204    8.9921    1.1176 C.ar      1 <0>        -0.1055
      4 C4          2.3672   10.2073    1.2080 C.ar      1 <0>        -0.1070
      5 C5          1.3885   10.4004    2.1660 C.ar      1 <0>        -0.1064
      6 C6          1.0609    9.3785    3.0365 C.ar      1 <0>        -0.0243
      7 C7          1.7118    8.1536    2.9438 C.ar      1 <0>         0.1460
      8 N1          1.3783    7.1144    3.8189 N.am      1 <0>        -0.6734
      9 C8          1.3676    7.3308    5.1492 C.2       1 <0>         0.6131
     10 O1          1.5489    8.4533    5.5848 O.2       1 <0>        -0.4899
     11 C9          1.1384    6.2176    6.0693 C.2       1 <0>        -0.3092
     12 C10         1.0807    6.2111    7.4561 C.2       1 <0>         0.1722
     13 N2          0.8573    5.0526    8.0233 N.2       1 <0>        -0.5180
     14 C11         0.6966    3.9535    7.3079 C.2       1 <0>         0.3121
     15 S1          0.8472    4.4907    5.7202 S.3       1 <0>         0.1340
     16 N3          0.4564    2.6698    7.7563 N.pl3     1 <0>        -0.5904
     17 C12         0.2490    2.4343    9.1091 C.ar      1 <0>         0.4412
     18 C13        -0.1036    1.1661    9.5586 C.ar      1 <0>        -0.3412
     19 C14        -0.3003    0.9817   10.9244 C.ar      1 <0>         0.4686
     20 N4         -0.1450    2.0186   11.7452 N.ar      1 <0>        -0.5923
     21 C15         0.1898    3.2050   11.2799 C.ar      1 <0>         0.3946
     22 N5          0.3901    3.4182    9.9956 N.ar      1 <0>        -0.5459
     23 C16         0.3546    4.3498   12.2460 C.3       1 <0>        -0.0834
     24 N6         -0.6531   -0.2629   11.4224 N.pl3     1 <0>        -0.5966
     25 C17        -1.0693   -0.4249   12.8237 C.3       1 <0>         0.1300
     26 C18        -2.3993   -1.1856   12.8517 C.3       1 <0>         0.0401
     27 N7         -2.2595   -2.4378   12.0965 N.3       1 <0>        -0.5276
     28 C19        -1.9688   -2.1765   10.6804 C.3       1 <0>         0.0363
     29 C20        -0.6270   -1.4554   10.5619 C.3       1 <0>         0.1269
     30 C21        -3.4565   -3.2768   12.2420 C.3       1 <0>         0.0537
     31 C22        -3.1814   -4.6636   11.6572 C.3       1 <0>         0.0792
     32 O2         -2.1684   -5.3132   12.4279 O.3       1 <0>        -0.5589
     33 Cl1        -0.1672    9.6214    4.2392 Cl        1 <0>        -0.0433
     34 H1          2.8725    5.9906    1.1961 H         1 <0>         0.0754
     35 H2          4.4240    6.8020    1.5166 H         1 <0>         0.0754
     36 H3          3.4510    6.1760    2.8692 H         1 <0>         0.0676
     37 H4          3.7844    8.8450    0.3685 H         1 <0>         0.1337
     38 H5          2.6220   11.0077    0.5292 H         1 <0>         0.1350
     39 H6          0.8801   11.3508    2.2339 H         1 <0>         0.1371
     40 H7          1.1547    6.2381    3.4683 H         1 <0>         0.4085
     41 H8          1.2132    7.1127    8.0357 H         1 <0>         0.1884
     42 H9          0.4325    1.9325    7.1264 H         1 <0>         0.4387
     43 H10        -0.2220    0.3459    8.8660 H         1 <0>         0.1413
     44 H11         1.3882    4.3890   12.5900 H         1 <0>         0.0870
     45 H12         0.1021    5.2855   11.7470 H         1 <0>         0.0890
     46 H13        -0.3072    4.2031   13.0995 H         1 <0>         0.0846
     47 H14        -0.3126   -0.9904   13.3674 H         1 <0>         0.0744
     48 H15        -1.1984    0.5551   13.2831 H         1 <0>         0.1008
     49 H16        -2.6676   -1.4113   13.8837 H         1 <0>         0.0903
     50 H17        -3.1785   -0.5727   12.3986 H         1 <0>         0.0372
     51 H18        -1.9249   -3.1208   10.1378 H         1 <0>         0.0905
     52 H19        -2.7540   -1.5497   10.2576 H         1 <0>         0.0380
     53 H20        -0.4638   -1.1563    9.5265 H         1 <0>         0.0877
     54 H21         0.1731   -2.1219   10.8840 H         1 <0>         0.0802
     55 H22        -3.7077   -3.3713   13.2985 H         1 <0>         0.0861
     56 H23        -4.2894   -2.8169   11.7102 H         1 <0>         0.0487
     57 H24        -4.0952   -5.2572   11.6843 H         1 <0>         0.0498
     58 H25        -2.8443   -4.5626   10.6256 H         1 <0>         0.0451
     59 H26        -1.9426   -6.1994   12.1134 H         1 <0>         0.3762
@<TRIPOS>BOND
     1    1    2 1
     2    1   34 1
     3    1   35 1
     4    1   36 1
     5    2    7 ar
     6    2    3 ar
     7    3    4 ar
     8    3   37 1
     9    4    5 ar
    10    4   38 1
    11    5    6 ar
    12    5   39 1
    13    6    7 ar
    14    6   33 1
    15    7    8 1
    16    8    9 am
    17    8   40 1
    18    9   10 2
    19    9   11 1
    20   11   15 1
    21   11   12 2
    22   12   13 1
    23   12   41 1
    24   13   14 2
    25   14   15 1
    26   14   16 1
    27   16   17 1
    28   16   42 1
    29   17   18 ar
    30   17   22 ar
    31   18   43 1
    32   18   19 ar
    33   19   24 1
    34   19   20 ar
    35   20   21 ar
    36   21   23 1
    37   21   22 ar
    38   23   44 1
    39   23   45 1
    40   23   46 1
    41   24   29 1
    42   24   25 1
    43   25   26 1
    44   25   47 1
    45   25   48 1
    46   26   27 1
    47   26   49 1
    48   26   50 1
    49   27   28 1
    50   27   30 1
    51   28   29 1
    52   28   51 1
    53   28   52 1
    54   29   53 1
    55   29   54 1
    56   30   31 1
    57   30   55 1
    58   30   56 1
    59   31   32 1
    60   31   57 1
    61   31   58 1
    62   32   59 1
@<TRIPOS>MOLECULE
ZINC21982951
   61    64     0     0     0
SMALL
USER_CHARGES

@<TRIPOS>ATOM
      1 C1          3.2770    6.6581    1.8427 C.3       1 <0>        -0.1166
      2 C2          2.5837    7.9904    1.9667 C.ar      1 <0>        -0.0814
      3 C3          2.9012    9.0183    1.0999 C.ar      1 <0>        -0.1028
      4 C4          2.2660   10.2411    1.2125 C.ar      1 <0>        -0.0975
      5 C5          1.3108   10.4402    2.1928 C.ar      1 <0>        -0.1039
      6 C6          0.9888    9.4167    3.0634 C.ar      1 <0>        -0.0218
      7 C7          1.6215    8.1842    2.9485 C.ar      1 <0>         0.1327
      8 N1          1.2933    7.1433    3.8237 N.am      1 <0>        -0.6648
      9 C8          1.3141    7.3507    5.1552 C.2       1 <0>         0.5983
     10 O1          1.5193    8.4677    5.5943 O.2       1 <0>        -0.4690
     11 C9          1.0903    6.2342    6.0727 C.2       1 <0>        -0.2500
     12 C10         1.0624    6.2188    7.4604 C.2       1 <0>         0.1439
     13 N2          0.8362    5.0594    8.0246 N.2       1 <0>        -0.4984
     14 C11         0.6458    3.9675    7.3056 C.2       1 <0>         0.2172
     15 S1          0.7692    4.5136    5.7185 S.3       1 <0>         0.2242
     16 N3          0.3986    2.6839    7.7506 N.pl3     1 <0>        -0.5513
     17 C12         0.2203    2.4413    9.1063 C.ar      1 <0>         0.5098
     18 C13        -0.1335    1.1734    9.5556 C.ar      1 <0>        -0.3097
     19 C14        -0.3003    0.9817   10.9244 C.ar      1 <0>         0.4927
     20 N4         -0.1163    2.0116   11.7481 N.ar      1 <0>        -0.5695
     21 C15         0.2187    3.1980   11.2828 C.ar      1 <0>         0.4589
     22 N5          0.3911    3.4178    9.9956 N.ar      1 <0>        -0.4762
     23 C16         0.4165    4.3348   12.2521 C.3       1 <0>        -0.1303
     24 N6         -0.6531   -0.2629   11.4224 N.pl3     1 <0>        -0.6123
     25 C17        -0.9643   -0.4465   12.8484 C.3       1 <0>         0.0782
     26 C18        -2.3027   -1.1838   12.9625 C.3       1 <0>        -0.0204
     27 N7         -2.2406   -2.4311   12.1903 N.4       1 <0>        -0.3852
     28 C19        -2.0770   -2.1279   10.7629 C.3       1 <0>        -0.0304
     29 C20        -0.7330   -1.4363   10.5388 C.3       1 <0>         0.0932
     30 C21        -3.4827   -3.1900   12.3886 C.3       1 <0>        -0.0061
     31 C22        -3.3702   -4.5448   11.6865 C.3       1 <0>         0.0434
     32 O2         -2.3479   -5.3224   12.3128 O.3       1 <0>        -0.5819
     33 Cl1        -0.2098    9.6671    4.2940 Cl        1 <0>        -0.0466
     34 H1          2.7157    6.0184    1.1617 H         1 <0>         0.0770
     35 H2          4.2843    6.8074    1.4538 H         1 <0>         0.0791
     36 H3          3.3325    6.1847    2.8230 H         1 <0>         0.0631
     37 H4          3.6468    8.8665    0.3335 H         1 <0>         0.1380
     38 H5          2.5166   11.0428    0.5336 H         1 <0>         0.1401
     39 H6          0.8165   11.3966    2.2780 H         1 <0>         0.1410
     40 H7          1.0508    6.2723    3.4722 H         1 <0>         0.4077
     41 H8          1.2191    7.1146    8.0429 H         1 <0>         0.2016
     42 H9          0.3494    1.9517    7.1163 H         1 <0>         0.4545
     43 H10        -0.2756    0.3590    8.8607 H         1 <0>         0.1860
     44 H11         1.4581    4.3621   12.5724 H         1 <0>         0.1309
     45 H12         0.1613    5.2760   11.7653 H         1 <0>         0.1358
     46 H13        -0.2267    4.1885   13.1199 H         1 <0>         0.1083
     47 H14        -0.1795   -1.0367   13.3215 H         1 <0>         0.1249
     48 H15        -1.0392    0.5259   13.3352 H         1 <0>         0.1232
     49 H16        -2.5028   -1.4138   14.0090 H         1 <0>         0.1602
     50 H17        -3.0999   -0.5526   12.5701 H         1 <0>         0.1410
     51 H18        -2.1110   -3.0537   10.1885 H         1 <0>         0.1585
     52 H19        -2.8811   -1.4682   10.4370 H         1 <0>         0.1418
     53 H20        -0.6550   -1.1179    9.4992 H         1 <0>         0.1416
     54 H21         0.0756   -2.1281   10.7747 H         1 <0>         0.1211
     55 H22        -3.6469   -3.3459   13.4548 H         1 <0>         0.1465
     56 H23        -4.3202   -2.6321   11.9697 H         1 <0>         0.1464
     57 H24        -4.3221   -5.0710   11.7578 H         1 <0>         0.1026
     58 H25        -3.1180   -4.3904   10.6374 H         1 <0>         0.0719
     59 H26        -2.2211   -6.1961   11.9183 H         1 <0>         0.4154
     60 H27        -0.2308    1.8869   12.7032 H         1 <0>         0.4393
     61 H28        -1.4578   -2.9831   12.5075 H         1 <0>         0.4359
@<TRIPOS>BOND
     1    1    2 1
     2    1   34 1
     3    1   35 1
     4    1   36 1
     5    2    7 ar
     6    2    3 ar
     7    3    4 ar
     8    3   37 1
     9    4    5 ar
    10    4   38 1
    11    5    6 ar
    12    5   39 1
    13    6    7 ar
    14    6   33 1
    15    7    8 1
    16    8    9 am
    17    8   40 1
    18    9   10 2
    19    9   11 1
    20   11   15 1
    21   11   12 2
    22   12   13 1
    23   12   41 1
    24   13   14 2
    25   14   15 1
    26   14   16 1
    27   16   17 1
    28   16   42 1
    29   17   18 ar
    30   17   22 ar
    31   18   43 1
    32   18   19 ar
    33   19   24 1
    34   19   20 ar
    35   20   60 1
    36   20   21 ar
    37   21   23 1
    38   21   22 ar
    39   23   44 1
    40   23   45 1
    41   23   46 1
    42   24   29 1
    43   24   25 1
    44   25   26 1
    45   25   47 1
    46   25   48 1
    47   26   27 1
    48   26   49 1
    49   26   50 1
    50   27   28 1
    51   27   30 1
    52   27   61 1
    53   28   29 1
    54   28   51 1
    55   28   52 1
    56   29   53 1
    57   29   54 1
    58   30   31 1
    59   30   55 1
    60   30   56 1
    61   31   32 1
    62   31   57 1
    63   31   58 1
    64   32   59 1
@<TRIPOS>MOLECULE
ZINC01609260
   36    39     0     0     0
SMALL
USER_CHARGES
7,9-diphenyl-2,4,9-triazabicyclo[4.3.0]nona-1,3,5,7-tetraen-5-amine
@<TRIPOS>ATOM
      1 C1         -0.8018   -5.5010   -0.0193 C.ar      1 <0>        -0.1197
      2 C2          0.2183   -5.3887   -0.9469 C.ar      1 <0>        -0.1112
      3 C3          1.0287   -4.2719   -0.9536 C.ar      1 <0>        -0.1080
      4 C4          0.8181   -3.2556   -0.0226 C.ar      1 <0>        -0.0116
      5 C5         -0.2077   -3.3771    0.9139 C.ar      1 <0>        -0.1264
      6 C6         -1.0156   -4.4958    0.9069 C.ar      1 <0>        -0.1125
      7 C7          1.6851   -2.0534   -0.0246 C.2       1 <0>        -0.0946
      8 C8          3.0408   -2.0315   -0.0372 C.2       1 <0>         0.0606
      9 N1          3.4801   -0.7343   -0.0347 N.pl3     1 <0>        -0.4086
     10 C9          2.4135    0.1274   -0.0203 C.ar      1 <0>         0.3514
     11 C10         1.2440   -0.6524   -0.0133 C.ar      1 <0>        -0.2510
     12 C11         0.0021   -0.0041    0.0020 C.ar      1 <0>         0.4945
     13 N2         -0.0160    1.3262    0.0093 N.ar      1 <0>        -0.5987
     14 C12         1.1067    2.0214    0.0023 C.ar      1 <0>         0.3635
     15 N3          2.2936    1.4540   -0.0124 N.ar      1 <0>        -0.5643
     16 N4         -1.1762   -0.7291    0.0089 N.pl3     1 <0>        -0.8301
     17 C13         4.8254   -0.3439   -0.0444 C.ar      1 <0>         0.1198
     18 C14         5.2714    0.5924   -0.9676 C.ar      1 <0>        -0.0990
     19 C15         6.5970    0.9802   -0.9703 C.ar      1 <0>        -0.1026
     20 C16         7.4824    0.4276   -0.0631 C.ar      1 <0>        -0.1139
     21 C17         7.0425   -0.5097    0.8535 C.ar      1 <0>        -0.1045
     22 C18         5.7168   -0.8967    0.8656 C.ar      1 <0>        -0.1183
     23 H1         -1.4340   -6.3766   -0.0183 H         1 <0>         0.1248
     24 H2          0.3805   -6.1766   -1.6676 H         1 <0>         0.1262
     25 H3          1.8243   -4.1850   -1.6787 H         1 <0>         0.1252
     26 H4         -0.3724   -2.5952    1.6404 H         1 <0>         0.1246
     27 H5         -1.8133   -4.5891    1.6290 H         1 <0>         0.1266
     28 H6          3.6772   -2.9041   -0.0473 H         1 <0>         0.1819
     29 H7          1.0482    3.0998    0.0083 H         1 <0>         0.2016
     30 H8         -2.0294   -0.2679    0.0192 H         1 <0>         0.4080
     31 H9         -1.1490   -1.6987    0.0035 H         1 <0>         0.4124
     32 H10         4.5815    1.0209   -1.6795 H         1 <0>         0.1292
     33 H11         6.9435    1.7123   -1.6847 H         1 <0>         0.1327
     34 H12         8.5195    0.7288   -0.0703 H         1 <0>         0.1301
     35 H13         7.7363   -0.9393    1.5610 H         1 <0>         0.1326
     36 H14         5.3736   -1.6282    1.5822 H         1 <0>         0.1292
@<TRIPOS>BOND
     1    1    6 ar
     2    1    2 ar
     3    1   23 1
     4    2    3 ar
     5    2   24 1
     6    3    4 ar
     7    3   25 1
     8    4    5 ar
     9    4    7 1
    10    5    6 ar
    11    5   26 1
    12    6   27 1
    13    7   11 1
    14    7    8 2
    15    8    9 1
    16    8   28 1
    17    9   10 1
    18    9   17 1
    19   10   15 ar
    20   10   11 ar
    21   11   12 ar
    22   12   13 ar
    23   12   16 1
    24   13   14 ar
    25   14   15 ar
    26   14   29 1
    27   16   30 1
    28   16   31 1
    29   17   22 ar
    30   17   18 ar
    31   18   19 ar
    32   18   32 1
    33   19   20 ar
    34   19   33 1
    35   20   21 ar
    36   20   34 1
    37   21   22 ar
    38   21   35 1
    39   22   36 1
@<TRIPOS>MOLECULE
ZINC08764182
   35    38     0     0     0
SMALL
USER_CHARGES

@<TRIPOS>ATOM
      1 C1         -0.0167    1.3791    0.0096 C.ar      1 <0>        -0.1173
      2 C2          1.1686    2.0924    0.0021 C.ar      1 <0>        -0.1234
      3 C3          2.3774    1.4269   -0.0135 C.ar      1 <0>        -0.1076
      4 C4          2.4026    0.0330   -0.0212 C.ar      1 <0>        -0.0195
      5 C5          1.2048   -0.6804   -0.0131 C.ar      1 <0>        -0.0773
      6 C6          0.0021   -0.0041    0.0020 C.ar      1 <0>        -0.1207
      7 C7          3.6979   -0.6877   -0.0384 C.2       1 <0>        -0.0480
      8 C8          4.7416   -0.4639   -0.8769 C.2       1 <0>         0.0290
      9 N1          5.7580   -1.3310   -0.5807 N.pl3     1 <0>        -0.3817
     10 C9          5.4015   -2.1425    0.4597 C.2       1 <0>         0.2998
     11 C10         4.1079   -1.7799    0.8517 C.2       1 <0>        -0.2612
     12 C11         3.4989   -2.4689    1.9240 C.2       1 <0>         0.5625
     13 N2          4.2015   -3.4535    2.5294 N.am      1 <0>        -0.6502
     14 C12         5.4549   -3.7576    2.1060 C.2       1 <0>         0.3897
     15 N3          6.0261   -3.1360    1.1137 N.2       1 <0>        -0.5226
     16 O1          2.3726   -2.1842    2.2933 O.2       1 <0>        -0.5186
     17 C13         6.9886   -1.3799   -1.2485 C.ar      1 <0>         0.1108
     18 C14         8.1735   -1.3776   -0.5247 C.ar      1 <0>        -0.0974
     19 C15         9.3851   -1.4258   -1.1860 C.ar      1 <0>        -0.1035
     20 C16         9.4189   -1.4763   -2.5675 C.ar      1 <0>        -0.1111
     21 C17         8.2405   -1.4788   -3.2911 C.ar      1 <0>        -0.1045
     22 C18         7.0257   -1.4365   -2.6354 C.ar      1 <0>        -0.1143
     23 H1         -0.9603    1.9042    0.0260 H         1 <0>         0.1211
     24 H2          1.1479    3.1722    0.0082 H         1 <0>         0.1228
     25 H3          3.3021    1.9848   -0.0200 H         1 <0>         0.1211
     26 H4          1.2183   -1.7603   -0.0191 H         1 <0>         0.1191
     27 H5         -0.9264   -0.5557    0.0079 H         1 <0>         0.1222
     28 H6          4.7661    0.2826   -1.6570 H         1 <0>         0.1842
     29 H7          5.9956   -4.5478    2.6056 H         1 <0>         0.2145
     30 H8          8.1478   -1.3377    0.5543 H         1 <0>         0.1300
     31 H9         10.3071   -1.4236   -0.6236 H         1 <0>         0.1335
     32 H10        10.3675   -1.5136   -3.0823 H         1 <0>         0.1310
     33 H11         8.2701   -1.5180   -4.3700 H         1 <0>         0.1337
     34 H12         6.1056   -1.4430   -3.2009 H         1 <0>         0.1310
     35 H13         3.8087   -3.9435    3.2687 H         1 <0>         0.4228
@<TRIPOS>BOND
     1    1    6 ar
     2    1    2 ar
     3    1   23 1
     4    2    3 ar
     5    2   24 1
     6    3    4 ar
     7    3   25 1
     8    4    5 ar
     9    4    7 1
    10    5    6 ar
    11    5   26 1
    12    6   27 1
    13    7   11 1
    14    7    8 2
    15    8    9 1
    16    8   28 1
    17    9   10 1
    18    9   17 1
    19   10   15 1
    20   10   11 2
    21   11   12 1
    22   12   13 am
    23   12   16 2
    24   13   14 1
    25   13   35 1
    26   14   15 2
    27   14   29 1
    28   17   22 ar
    29   17   18 ar
    30   18   19 ar
    31   18   30 1
    32   19   20 ar
    33   19   31 1
    34   20   21 ar
    35   20   32 1
    36   21   22 ar
    37   21   33 1
    38   22   34 1
@<TRIPOS>MOLECULE
ZINC01609268
   40    43     0     0     0
SMALL
USER_CHARGES
7-(4-methoxyphenyl)-9-phenyl-2,4,9-triazabicyclo[4.3.0]nona-1,3,5,7-tetraen-5-amine
@<TRIPOS>ATOM
      1 C1         -2.6307   -6.6583    0.9712 C.3       1 <0>         0.0252
      2 O1         -1.5977   -6.6056   -0.0148 O.3       1 <0>        -0.3158
      3 C2         -0.8031   -5.5028   -0.0177 C.ar      1 <0>         0.1292
      4 C3          0.2194   -5.3885   -0.9494 C.ar      1 <0>        -0.1432
      5 C4          1.0281   -4.2712   -0.9546 C.ar      1 <0>        -0.0662
      6 C5          0.8172   -3.2556   -0.0228 C.ar      1 <0>        -0.0504
      7 C6         -0.2077   -3.3758    0.9148 C.ar      1 <0>        -0.0839
      8 C7         -1.0158   -4.4936    0.9113 C.ar      1 <0>        -0.2017
      9 C8          1.6848   -2.0534   -0.0251 C.2       1 <0>        -0.0869
     10 C9          3.0402   -2.0322   -0.0379 C.2       1 <0>         0.0571
     11 N1          3.4801   -0.7341   -0.0351 N.pl3     1 <0>        -0.4090
     12 C10         2.4136    0.1274   -0.0203 C.ar      1 <0>         0.3514
     13 C11         1.2440   -0.6525   -0.0133 C.ar      1 <0>        -0.2518
     14 C12         0.0021   -0.0041    0.0020 C.ar      1 <0>         0.4942
     15 N2         -0.0160    1.3262    0.0093 N.ar      1 <0>        -0.5991
     16 C13         1.1068    2.0215    0.0023 C.ar      1 <0>         0.3631
     17 N3          2.2937    1.4541   -0.0120 N.ar      1 <0>        -0.5643
     18 N4         -1.1762   -0.7291    0.0089 N.pl3     1 <0>        -0.8306
     19 C14         4.8253   -0.3438   -0.0458 C.ar      1 <0>         0.1205
     20 C15         5.2708    0.5925   -0.9694 C.ar      1 <0>        -0.0992
     21 C16         6.5967    0.9791   -0.9740 C.ar      1 <0>        -0.1027
     22 C17         7.4827    0.4266   -0.0674 C.ar      1 <0>        -0.1141
     23 C18         7.0434   -0.5103    0.8499 C.ar      1 <0>        -0.1046
     24 C19         5.7175   -0.8968    0.8633 C.ar      1 <0>        -0.1184
     25 H1         -2.1864   -6.6147    1.9656 H         1 <0>         0.0571
     26 H2         -3.3046   -5.8121    0.8369 H         1 <0>         0.0569
     27 H3         -3.1890   -7.5882    0.8631 H         1 <0>         0.1022
     28 H4          0.3822   -6.1755   -1.6709 H         1 <0>         0.1354
     29 H5          1.8239   -4.1832   -1.6793 H         1 <0>         0.1334
     30 H6         -0.3709   -2.5930    1.6407 H         1 <0>         0.1279
     31 H7         -1.8125   -4.5855    1.6347 H         1 <0>         0.1325
     32 H8          3.6763   -2.9049   -0.0481 H         1 <0>         0.1818
     33 H9          1.0482    3.0998    0.0087 H         1 <0>         0.2011
     34 H10        -2.0294   -0.2678    0.0192 H         1 <0>         0.4077
     35 H11        -1.1490   -1.6987    0.0035 H         1 <0>         0.4118
     36 H12         4.5802    1.0214   -1.6805 H         1 <0>         0.1292
     37 H13         6.9428    1.7107   -1.6892 H         1 <0>         0.1325
     38 H14         8.5198    0.7278   -0.0755 H         1 <0>         0.1299
     39 H15         7.7377   -0.9401    1.5567 H         1 <0>         0.1324
     40 H16         5.3748   -1.6281    1.5804 H         1 <0>         0.1292
@<TRIPOS>BOND
     1    1    2 1
     2    1   25 1
     3    1   26 1
     4    1   27 1
     5    2    3 1
     6    3    8 ar
     7    3    4 ar
     8    4    5 ar
     9    4   28 1
    10    5    6 ar
    11    5   29 1
    12    6    7 ar
    13    6    9 1
    14    7    8 ar
    15    7   30 1
    16    8   31 1
    17    9   13 1
    18    9   10 2
    19   10   11 1
    20   10   32 1
    21   11   12 1
    22   11   19 1
    23   12   17 ar
    24   12   13 ar
    25   13   14 ar
    26   14   15 ar
    27   14   18 1
    28   15   16 ar
    29   16   17 ar
    30   16   33 1
    31   18   34 1
    32   18   35 1
    33   19   24 ar
    34   19   20 ar
    35   20   21 ar
    36   20   36 1
    37   21   22 ar
    38   21   37 1
    39   22   23 ar
    40   22   38 1
    41   23   24 ar
    42   23   39 1
    43   24   40 1
@<TRIPOS>MOLECULE
ZINC02576349
   43    46     0     0     0
SMALL
USER_CHARGES
7-(1-naphthyl)-9-tert-butyl-2,4,8,9-tetrazabicyclo[4.3.0]nona-1,3,5,7-tetraen-5-amine
@<TRIPOS>ATOM
      1 C1         -2.2648    1.4156   -1.1798 C.3       1 <0>        -0.1444
      2 C2         -1.0921    2.2875   -0.7266 C.3       1 <0>         0.1895
      3 C3         -1.4339    2.9467    0.6111 C.3       1 <0>        -0.1619
      4 C4         -0.8260    3.3695   -1.7751 C.3       1 <0>        -0.1623
      5 N1          0.1032    1.4552   -0.5696 N.pl3     1 <0>        -0.3674
      6 C5          1.3308    1.9052   -0.1828 C.ar      1 <0>         0.3804
      7 C6          2.1889    0.7898   -0.1661 C.ar      1 <0>        -0.3265
      8 C7          1.3808   -0.3606   -0.5722 C.2       1 <0>         0.1648
      9 N2          0.1635    0.0765   -0.7990 N.2       1 <0>        -0.2277
     10 C8          1.8488   -1.7584   -0.7026 C.ar      1 <0>        -0.0125
     11 C9          2.9319   -2.0612   -1.5103 C.ar      1 <0>        -0.0976
     12 C10         3.3811   -3.3708   -1.6324 C.ar      1 <0>        -0.1175
     13 C11         2.7643   -4.3918   -0.9743 C.ar      1 <0>        -0.0881
     14 C12         1.6574   -4.1307   -0.1487 C.ar      1 <0>        -0.0497
     15 C13         1.1904   -2.8012   -0.0075 C.ar      1 <0>        -0.0279
     16 C14         0.0864   -2.5419    0.8173 C.ar      1 <0>        -0.1006
     17 C15        -0.5230   -3.5696    1.4714 C.ar      1 <0>        -0.1104
     18 C16        -0.0653   -4.8782    1.3334 C.ar      1 <0>        -0.1109
     19 C17         1.0037   -5.1664    0.5416 C.ar      1 <0>        -0.1058
     20 C18         3.5302    0.9803    0.2031 C.ar      1 <0>         0.5194
     21 N3          3.9291    2.2083    0.5206 N.ar      1 <0>        -0.6077
     22 C19         3.0891    3.2274    0.4913 C.ar      1 <0>         0.3852
     23 N4          1.8252    3.0965    0.1525 N.ar      1 <0>        -0.5722
     24 N5          4.4132   -0.0817    0.2360 N.pl3     1 <0>        -0.8244
     25 H1         -2.4544    0.6447   -0.4329 H         1 <0>         0.0672
     26 H2         -3.1541    2.0348   -1.2967 H         1 <0>         0.0758
     27 H3         -2.0213    0.9459   -2.1329 H         1 <0>         0.0677
     28 H4         -0.5984    3.5679    0.9340 H         1 <0>         0.0772
     29 H5         -2.3232    3.5660    0.4943 H         1 <0>         0.0800
     30 H6         -1.6235    2.1759    1.3581 H         1 <0>         0.0594
     31 H7         -0.5825    2.8999   -2.7281 H         1 <0>         0.0596
     32 H8         -1.7154    3.9888   -1.8919 H         1 <0>         0.0799
     33 H9          0.0094    3.9907   -1.4522 H         1 <0>         0.0773
     34 H10         3.4359   -1.2709   -2.0469 H         1 <0>         0.1296
     35 H11         4.2309   -3.5835   -2.2641 H         1 <0>         0.1329
     36 H12         3.1262   -5.4030   -1.0874 H         1 <0>         0.1333
     37 H13        -0.2792   -1.5323    0.9330 H         1 <0>         0.1262
     38 H14        -1.3729   -3.3671    2.1063 H         1 <0>         0.1247
     39 H15        -0.5658   -5.6756    1.8626 H         1 <0>         0.1263
     40 H16         1.3482   -6.1854    0.4444 H         1 <0>         0.1313
     41 H17         3.4552    4.2081    0.7568 H         1 <0>         0.2041
     42 H18         4.0875   -0.9872    0.1138 H         1 <0>         0.4127
     43 H19         5.3589    0.0781    0.3813 H         1 <0>         0.4111
@<TRIPOS>BOND
     1    1    2 1
     2    1   25 1
     3    1   26 1
     4    1   27 1
     5    2    3 1
     6    2    4 1
     7    2    5 1
     8    3   28 1
     9    3   29 1
    10    3   30 1
    11    4   31 1
    12    4   32 1
    13    4   33 1
    14    5    9 1
    15    5    6 1
    16    6   23 ar
    17    6    7 ar
    18    7    8 1
    19    7   20 ar
    20    8    9 2
    21    8   10 1
    22   10   15 ar
    23   10   11 ar
    24   11   12 ar
    25   11   34 1
    26   12   13 ar
    27   12   35 1
    28   13   14 ar
    29   13   36 1
    30   14   19 ar
    31   14   15 ar
    32   15   16 ar
    33   16   17 ar
    34   16   37 1
    35   17   18 ar
    36   17   38 1
    37   18   19 ar
    38   18   39 1
    39   19   40 1
    40   20   21 ar
    41   20   24 1
    42   21   22 ar
    43   22   23 ar
    44   22   41 1
    45   24   42 1
    46   24   43 1
@<TRIPOS>MOLECULE
ZINC02047275
   40    42     0     0     0
SMALL
USER_CHARGES

@<TRIPOS>ATOM
      1 C1          0.7504    1.4813   -0.5243 C.3       1 <0>        -0.1202
      2 C2          0.6799   -0.0230   -0.4691 C.ar      1 <0>        -0.0709
      3 C3         -0.5065   -0.6686   -0.7679 C.ar      1 <0>        -0.1163
      4 C4         -0.5769   -2.0460   -0.7194 C.ar      1 <0>        -0.0803
      5 C5          0.5506   -2.7869   -0.3684 C.ar      1 <0>        -0.0302
      6 C6          1.7435   -2.1308   -0.0684 C.ar      1 <0>        -0.1049
      7 C7          1.8034   -0.7533   -0.1253 C.ar      1 <0>        -0.1170
      8 C8          0.4813   -4.2668   -0.3141 C.2       1 <0>         0.1646
      9 C9          1.0233   -5.1212    0.7421 C.ar      1 <0>        -0.3256
     10 C10         1.7203   -4.8974    1.9412 C.ar      1 <0>         0.5179
     11 N1          2.0660   -5.9499    2.6758 N.ar      1 <0>        -0.6060
     12 C11         1.7644   -7.1781    2.2929 C.ar      1 <0>         0.3830
     13 N2          1.1143   -7.4354    1.1795 N.ar      1 <0>        -0.5706
     14 C12         0.7242   -6.4464    0.3753 C.ar      1 <0>         0.3781
     15 N3          0.0542   -6.3875   -0.8104 N.pl3     1 <0>        -0.3674
     16 N4         -0.0827   -5.0514   -1.2016 N.2       1 <0>        -0.2318
     17 C13        -0.4483   -7.5436   -1.5568 C.3       1 <0>         0.1893
     18 C14        -1.4481   -8.3137   -0.6918 C.3       1 <0>        -0.1621
     19 C15        -1.1417   -7.0641   -2.8336 C.3       1 <0>        -0.1441
     20 C16         0.7202   -8.4603   -1.9245 C.3       1 <0>        -0.1621
     21 N5          2.0388   -3.6157    2.3464 N.pl3     1 <0>        -0.8296
     22 H1          1.0385    1.7949   -1.5277 H         1 <0>         0.0748
     23 H2         -0.2256    1.9000   -0.2789 H         1 <0>         0.0696
     24 H3          1.4893    1.8370    0.1937 H         1 <0>         0.0697
     25 H4         -1.3795   -0.0936   -1.0393 H         1 <0>         0.1298
     26 H5         -1.5038   -2.5489   -0.9525 H         1 <0>         0.1288
     27 H6          2.6201   -2.6997    0.2042 H         1 <0>         0.1308
     28 H7          2.7281   -0.2441    0.1030 H         1 <0>         0.1308
     29 H8          2.0645   -8.0045    2.9201 H         1 <0>         0.2039
     30 H9         -2.2806   -7.6606   -0.4299 H         1 <0>         0.0595
     31 H10        -1.8220   -9.1739   -1.2472 H         1 <0>         0.0799
     32 H11        -0.9541   -8.6553    0.2178 H         1 <0>         0.0770
     33 H12        -0.4294   -6.5155   -3.4498 H         1 <0>         0.0676
     34 H13        -1.5156   -7.9243   -3.3889 H         1 <0>         0.0757
     35 H14        -1.9742   -6.4110   -2.5716 H         1 <0>         0.0673
     36 H15         1.2142   -8.8019   -1.0149 H         1 <0>         0.0770
     37 H16         0.3463   -9.3205   -2.4798 H         1 <0>         0.0799
     38 H17         1.4325   -7.9117   -2.5407 H         1 <0>         0.0596
     39 H18         1.5920   -2.8546    1.9438 H         1 <0>         0.4138
     40 H19         2.7091   -3.4768    3.0336 H         1 <0>         0.4102
@<TRIPOS>BOND
     1    1    2 1
     2    1   22 1
     3    1   23 1
     4    1   24 1
     5    2    7 ar
     6    2    3 ar
     7    3    4 ar
     8    3   25 1
     9    4    5 ar
    10    4   26 1
    11    5    6 ar
    12    5    8 1
    13    6    7 ar
    14    6   27 1
    15    7   28 1
    16    8   16 2
    17    8    9 1
    18    9   14 ar
    19    9   10 ar
    20   10   11 ar
    21   10   21 1
    22   11   12 ar
    23   12   13 ar
    24   12   29 1
    25   13   14 ar
    26   14   15 1
    27   15   16 1
    28   15   17 1
    29   17   18 1
    30   17   19 1
    31   17   20 1
    32   18   30 1
    33   18   31 1
    34   18   32 1
    35   19   33 1
    36   19   34 1
    37   19   35 1
    38   20   36 1
    39   20   37 1
    40   20   38 1
    41   21   39 1
    42   21   40 1
@<TRIPOS>MOLECULE
ZINC02047503
   45    48     0     0     0
SMALL
USER_CHARGES
6-(2,6-dichlorophenyl)-2-[[3-(hydroxymethyl)phenyl]amino]-8-methyl-pyrido[6,5-d]pyrimidin-7-one
@<TRIPOS>ATOM
      1 C1          0.0685    1.0902    0.1116 C.3       1 <0>         0.0699
      2 N1         -0.4262    1.5833    1.3993 N.am      1 <0>        -0.5062
      3 C2         -0.5386    2.9342    1.6113 C.ar      1 <0>         0.4668
      4 C3         -1.0182    3.4258    2.8448 C.ar      1 <0>        -0.2772
      5 C4         -1.3770    2.5290    3.8769 C.2       1 <0>         0.0314
      6 C5         -1.2566    1.1828    3.6580 C.2       1 <0>        -0.1643
      7 C6         -0.7609    0.7061    2.3650 C.2       1 <0>         0.5577
      8 O1         -0.6511   -0.4900    2.1618 O.2       1 <0>        -0.5027
      9 C7         -1.6241    0.2171    4.7198 C.ar      1 <0>        -0.0102
     10 C8         -0.6661   -0.2109    5.6397 C.ar      1 <0>        -0.0065
     11 C9         -1.0165   -1.1073    6.6304 C.ar      1 <0>        -0.1064
     12 C10        -2.3111   -1.5889    6.7051 C.ar      1 <0>        -0.0874
     13 C11        -3.2642   -1.1726    5.7932 C.ar      1 <0>        -0.1064
     14 C12        -2.9282   -0.2726    4.8008 C.ar      1 <0>        -0.0064
     15 Cl1        -4.1255    0.2477    3.6566 Cl        1 <0>        -0.0501
     16 Cl2         0.9610    0.3864    5.5428 Cl        1 <0>        -0.0503
     17 C13        -1.1231    4.8140    3.0188 C.ar      1 <0>         0.2643
     18 N2         -0.7739    5.6039    2.0208 N.ar      1 <0>        -0.5677
     19 C14        -0.3311    5.1056    0.8717 C.ar      1 <0>         0.6091
     20 N3         -0.2145    3.8035    0.6608 N.ar      1 <0>        -0.5948
     21 N4          0.0210    5.9779   -0.1404 N.pl3     1 <0>        -0.6255
     22 C15        -0.1997    7.3500    0.0111 C.ar      1 <0>         0.1535
     23 C16        -1.3058    7.8032    0.7190 C.ar      1 <0>        -0.1019
     24 C17        -1.5179    9.1592    0.8714 C.ar      1 <0>        -0.1022
     25 C18        -0.6364   10.0658    0.3112 C.ar      1 <0>        -0.1107
     26 C19         0.4624    9.6181   -0.3988 C.ar      1 <0>        -0.0740
     27 C20         0.6833    8.2631   -0.5504 C.ar      1 <0>        -0.1226
     28 C21         1.4197   10.6097   -1.0082 C.3       1 <0>         0.1166
     29 O2          0.9930   10.9310   -2.3336 O.3       1 <0>        -0.5676
     30 H1          0.0950    0.0006    0.1256 H         1 <0>         0.1008
     31 H2          1.0728    1.4758   -0.0636 H         1 <0>         0.0801
     32 H3         -0.5942    1.4272   -0.6855 H         1 <0>         0.0804
     33 H4         -1.7410    2.9000    4.8236 H         1 <0>         0.1507
     34 H5         -0.2771   -1.4360    7.3457 H         1 <0>         0.1438
     35 H6         -2.5787   -2.2934    7.4788 H         1 <0>         0.1454
     36 H7         -4.2732   -1.5525    5.8570 H         1 <0>         0.1438
     37 H8         -1.4817    5.2275    3.9498 H         1 <0>         0.1884
     38 H9          0.4212    5.6382   -0.9561 H         1 <0>         0.4268
     39 H10        -1.9968    7.0958    1.1532 H         1 <0>         0.1360
     40 H11        -2.3754    9.5121    1.4250 H         1 <0>         0.1294
     41 H12        -0.8068   11.1258    0.4283 H         1 <0>         0.1250
     42 H13         1.5416    7.9141   -1.1054 H         1 <0>         0.1259
     43 H14         1.4384   11.5159   -0.4028 H         1 <0>         0.0579
     44 H15         2.4189   10.1755   -1.0434 H         1 <0>         0.0551
     45 H16         1.5640   11.5657   -2.7877 H         1 <0>         0.3824
@<TRIPOS>BOND
     1    1    2 1
     2    1   30 1
     3    1   31 1
     4    1   32 1
     5    2    7 am
     6    2    3 1
     7    3   20 ar
     8    3    4 ar
     9    4    5 1
    10    4   17 ar
    11    5    6 2
    12    5   33 1
    13    6    7 1
    14    6    9 1
    15    7    8 2
    16    9   14 ar
    17    9   10 ar
    18   10   11 ar
    19   10   16 1
    20   11   12 ar
    21   11   34 1
    22   12   13 ar
    23   12   35 1
    24   13   14 ar
    25   13   36 1
    26   14   15 1
    27   17   18 ar
    28   17   37 1
    29   18   19 ar
    30   19   20 ar
    31   19   21 1
    32   21   22 1
    33   21   38 1
    34   22   27 ar
    35   22   23 ar
    36   23   24 ar
    37   23   39 1
    38   24   25 ar
    39   24   40 1
    40   25   26 ar
    41   25   41 1
    42   26   27 ar
    43   26   28 1
    44   27   42 1
    45   28   29 1
    46   28   43 1
    47   28   44 1
    48   29   45 1
@<TRIPOS>MOLECULE
ZINC01383151
   37    39     0     0     0
SMALL
USER_CHARGES

@<TRIPOS>ATOM
      1 C1         -1.1455    1.2885   -0.6608 C.3       1 <0>        -0.1446
      2 C2         -0.6741   -0.1436   -0.4002 C.3       1 <0>         0.1889
      3 C3          0.0885   -0.1963    0.9251 C.3       1 <0>        -0.1620
      4 C4         -1.8863   -1.0744   -0.3285 C.3       1 <0>        -0.1626
      5 N1          0.2077   -0.5730   -1.4885 N.pl3     1 <0>        -0.3657
      6 C5          0.8042   -1.7951   -1.5829 C.ar      1 <0>         0.3794
      7 C6          1.5592   -1.7908   -2.7708 C.ar      1 <0>        -0.3246
      8 C7          1.3681   -0.4739   -3.3780 C.2       1 <0>         0.1589
      9 N2          0.5635    0.2052   -2.5951 N.2       1 <0>        -0.2267
     10 C8          1.9678    0.0032   -4.6470 C.ar      1 <0>        -0.0171
     11 C9          1.9680   -0.8188   -5.7730 C.ar      1 <0>        -0.0978
     12 C10         2.5276   -0.3699   -6.9517 C.ar      1 <0>        -0.1054
     13 C11         3.0885    0.8941   -7.0172 C.ar      1 <0>        -0.0242
     14 C12         3.0913    1.7142   -5.9017 C.ar      1 <0>        -0.1044
     15 C13         2.5284    1.2775   -4.7201 C.ar      1 <0>        -0.0724
     16 Cl1         3.7914    1.4526   -8.5031 Cl        1 <0>        -0.0595
     17 C14         2.2822   -2.9459   -3.1108 C.ar      1 <0>         0.5178
     18 N3          2.2203   -3.9926   -2.2933 N.ar      1 <0>        -0.6043
     19 C15         1.4984   -3.9529   -1.1876 C.ar      1 <0>         0.3844
     20 N4          0.8058   -2.8942   -0.8290 N.ar      1 <0>        -0.5698
     21 N5          3.0384   -2.9934   -4.2660 N.pl3     1 <0>        -0.8297
     22 H1         -0.2819    1.9516   -0.7119 H         1 <0>         0.0676
     23 H2         -1.6888    1.3260   -1.6050 H         1 <0>         0.0678
     24 H3         -1.8016    1.6080    0.1489 H         1 <0>         0.0763
     25 H4         -0.5676    0.1232    1.7348 H         1 <0>         0.0806
     26 H5          0.4243   -1.2165    1.1107 H         1 <0>         0.0770
     27 H6          0.9521    0.4669    0.8740 H         1 <0>         0.0599
     28 H7         -2.4296   -1.0369   -1.2727 H         1 <0>         0.0599
     29 H8         -1.5504   -2.0947   -0.1429 H         1 <0>         0.0774
     30 H9         -2.5423   -0.7549    0.4811 H         1 <0>         0.0804
     31 H10         1.5313   -1.8053   -5.7227 H         1 <0>         0.1409
     32 H11         2.5283   -1.0059   -7.8246 H         1 <0>         0.1431
     33 H12         3.5304    2.6993   -5.9580 H         1 <0>         0.1422
     34 H13         2.5267    1.9198   -3.8518 H         1 <0>         0.1395
     35 H14         1.4759   -4.8260   -0.5523 H         1 <0>         0.2047
     36 H15         3.2655   -2.1730   -4.7311 H         1 <0>         0.4126
     37 H16         3.3423   -3.8471   -4.6119 H         1 <0>         0.4114
@<TRIPOS>BOND
     1    1    2 1
     2    1   22 1
     3    1   23 1
     4    1   24 1
     5    2    3 1
     6    2    4 1
     7    2    5 1
     8    3   25 1
     9    3   26 1
    10    3   27 1
    11    4   28 1
    12    4   29 1
    13    4   30 1
    14    5    9 1
    15    5    6 1
    16    6   20 ar
    17    6    7 ar
    18    7    8 1
    19    7   17 ar
    20    8    9 2
    21    8   10 1
    22   10   15 ar
    23   10   11 ar
    24   11   12 ar
    25   11   31 1
    26   12   13 ar
    27   12   32 1
    28   13   14 ar
    29   13   16 1
    30   14   15 ar
    31   14   33 1
    32   15   34 1
    33   17   18 ar
    34   17   21 1
    35   18   19 ar
    36   19   20 ar
    37   19   35 1
    38   21   36 1
    39   21   37 1
@<TRIPOS>MOLECULE
ZINC02455203
   34    37     0     0     0
SMALL
USER_CHARGES
5-chloro-7,9-diphenyl-2,4,9-triazabicyclo[4.3.0]nona-1,3,5,7-tetraene
@<TRIPOS>ATOM
      1 C1          9.3983    3.0071    2.5255 C.ar      1 <0>        -0.1142
      2 C2          8.2303    2.9894    3.2666 C.ar      1 <0>        -0.1193
      3 C3          7.0079    2.9108    2.6312 C.ar      1 <0>        -0.1039
      4 C4          6.9515    2.8487    1.2395 C.ar      1 <0>        -0.0198
      5 C5          8.1323    2.8611    0.4981 C.ar      1 <0>        -0.0940
      6 C6          9.3486    2.9458    1.1444 C.ar      1 <0>        -0.1196
      7 C7          5.6417    2.7636    0.5510 C.2       1 <0>        -0.0922
      8 C8          4.6353    1.8984    0.8279 C.2       1 <0>         0.0820
      9 N1          3.5852    2.1244   -0.0212 N.pl3     1 <0>        -0.4080
     10 C9          3.8838    3.1475   -0.8839 C.ar      1 <0>         0.3393
     11 C10         5.1801    3.6002   -0.5655 C.ar      1 <0>        -0.1829
     12 C11         5.7238    4.6498   -1.3027 C.ar      1 <0>         0.2760
     13 N2          4.9960    5.1839   -2.2723 N.ar      1 <0>        -0.5271
     14 C12         3.7822    4.7369   -2.5397 C.ar      1 <0>         0.3349
     15 N3          3.2269    3.7490   -1.8710 N.ar      1 <0>        -0.5169
     16 Cl1         7.3179    5.2446   -0.9583 Cl        1 <0>         0.0024
     17 C13         2.3808    1.4090   -0.0135 C.ar      1 <0>         0.1131
     18 C14         1.1690    2.0868    0.0021 C.ar      1 <0>        -0.0985
     19 C15        -0.0167    1.3786    0.0096 C.ar      1 <0>        -0.1019
     20 C16         0.0021   -0.0041    0.0020 C.ar      1 <0>        -0.1100
     21 C17         1.2072   -0.6820   -0.0131 C.ar      1 <0>        -0.1034
     22 C18         2.3963    0.0205   -0.0211 C.ar      1 <0>        -0.1151
     23 H1         10.3527    3.0695    3.0271 H         1 <0>         0.1227
     24 H2          8.2753    3.0376    4.3446 H         1 <0>         0.1245
     25 H3          6.0967    2.8977    3.2108 H         1 <0>         0.1229
     26 H4          8.0949    2.8090   -0.5800 H         1 <0>         0.1210
     27 H5         10.2637    2.9596    0.5710 H         1 <0>         0.1238
     28 H6          4.6584    1.1449    1.6013 H         1 <0>         0.1901
     29 H7          3.2231    5.2010   -3.3388 H         1 <0>         0.2132
     30 H8          1.1538    3.1667    0.0077 H         1 <0>         0.1292
     31 H9         -0.9595    1.9053    0.0169 H         1 <0>         0.1342
     32 H10        -0.9264   -0.5556    0.0083 H         1 <0>         0.1318
     33 H11         1.2186   -1.7619   -0.0190 H         1 <0>         0.1346
     34 H12         3.3372   -0.5095   -0.0329 H         1 <0>         0.1311
@<TRIPOS>BOND
     1    1    6 ar
     2    1    2 ar
     3    1   23 1
     4    2    3 ar
     5    2   24 1
     6    3    4 ar
     7    3   25 1
     8    4    5 ar
     9    4    7 1
    10    5    6 ar
    11    5   26 1
    12    6   27 1
    13    7   11 1
    14    7    8 2
    15    8    9 1
    16    8   28 1
    17    9   10 1
    18    9   17 1
    19   10   15 ar
    20   10   11 ar
    21   11   12 ar
    22   12   13 ar
    23   12   16 1
    24   13   14 ar
    25   14   15 ar
    26   14   29 1
    27   17   22 ar
    28   17   18 ar
    29   18   19 ar
    30   18   30 1
    31   19   20 ar
    32   19   31 1
    33   20   21 ar
    34   20   32 1
    35   21   22 ar
    36   21   33 1
    37   22   34 1
@<TRIPOS>MOLECULE
ZINC03952380
   72    74     0     0     0
SMALL
USER_CHARGES
1-[3-(2,6-dichlorophenyl)-8-(4-diethylaminobutylamino)-5,7,9-triazabicyclo[4.4.0]deca-2,4,7,9,11-pentaen-4-yl]-3-tert-butyl-urea
@<TRIPOS>ATOM
      1 C1         -4.4663    6.7451   -2.1992 C.3       1 <0>        -0.1869
      2 C2         -3.7440    7.5917   -1.1493 C.3       1 <0>        -0.0140
      3 C3         -5.7495    7.7763    0.1948 C.3       1 <0>        -0.0122
      4 C4         -5.8211    9.3045    0.1743 C.3       1 <0>        -0.1886
      5 C5         -4.2126    5.9411    0.5591 C.3       1 <0>        -0.0109
      6 C6         -2.7345    5.6035    0.7639 C.3       1 <0>        -0.1438
      7 C7         -2.5983    4.1344    1.1690 C.3       1 <0>        -0.1329
      8 C8         -1.1201    3.7968    1.3738 C.3       1 <0>         0.1393
      9 N1         -0.9897    2.3901    1.7617 N.pl3     1 <0>        -0.6988
     10 C9          0.2606    1.8528    2.0025 C.ar      1 <0>         0.5908
     11 N2          1.3286    2.6364    1.8690 N.ar      1 <0>        -0.5736
     12 C10         2.5462    2.1791    2.0797 C.ar      1 <0>         0.2660
     13 C11         2.7015    0.8330    2.4529 C.ar      1 <0>        -0.2909
     14 C12         3.9658    0.2710    2.6947 C.ar      1 <0>         0.0475
     15 C13         4.0241   -1.0651    3.0577 C.ar      1 <0>        -0.1607
     16 C14         2.8285   -1.8061    3.1708 C.ar      1 <0>         0.4876
     17 N3          1.6541   -1.2563    2.9386 N.ar      1 <0>        -0.4748
     18 C15         1.5415    0.0257    2.5863 C.ar      1 <0>         0.4312
     19 N4          0.3471    0.5830    2.3502 N.ar      1 <0>        -0.5595
     20 N5          2.8912   -3.1435    3.5349 N.am      1 <0>        -0.6592
     21 C16         1.7585   -3.8651    3.6472 C.2       1 <0>         0.6931
     22 O1          0.6818   -3.3443    3.4295 O.2       1 <0>        -0.5048
     23 N6          1.8195   -5.1642    4.0010 N.am      1 <0>        -0.7340
     24 C17         0.5883   -5.9487    4.1231 C.3       1 <0>         0.1879
     25 C18        -0.1412   -5.9656    2.7783 C.3       1 <0>        -0.1657
     26 C19         0.9349   -7.3813    4.5333 C.3       1 <0>        -0.1564
     27 C20        -0.3148   -5.3184    5.1852 C.3       1 <0>        -0.1657
     28 C21         5.3318   -1.7107    3.3246 C.ar      1 <0>        -0.0437
     29 C22         6.0299   -2.3328    2.2896 C.ar      1 <0>        -0.0133
     30 C23         7.2503   -2.9280    2.5437 C.ar      1 <0>        -0.1036
     31 C24         7.7753   -2.9171    3.8233 C.ar      1 <0>        -0.0815
     32 C25         7.0852   -2.3068    4.8551 C.ar      1 <0>        -0.1036
     33 C26         5.8664   -1.7036    4.6130 C.ar      1 <0>        -0.0132
     34 Cl1         5.0016   -0.9387    5.9094 Cl        1 <0>        -0.0433
     35 Cl2         5.3693   -2.3538    0.6844 Cl        1 <0>        -0.0434
     36 H1         -4.0065    6.9055   -3.1744 H         1 <0>         0.1057
     37 H2         -4.3908    5.6913   -1.9309 H         1 <0>         0.0804
     38 H3         -5.5162    7.0352   -2.2404 H         1 <0>         0.0800
     39 H4         -3.8394    8.6470   -1.4052 H         1 <0>         0.1289
     40 H5         -2.6893    7.3178   -1.1245 H         1 <0>         0.1296
     41 H6         -6.2651    7.3767   -0.6785 H         1 <0>         0.1321
     42 H7         -6.2262    7.4024    1.1009 H         1 <0>         0.1285
     43 H8         -6.8645    9.6196    0.1898 H         1 <0>         0.1058
     44 H9         -5.3079    9.7041    1.0489 H         1 <0>         0.0802
     45 H10        -5.3421    9.6786   -0.7305 H         1 <0>         0.0792
     46 H11        -4.6244    5.3079   -0.2268 H         1 <0>         0.1339
     47 H12        -4.7569    5.7683    1.4875 H         1 <0>         0.1302
     48 H13        -2.3227    6.2368    1.5498 H         1 <0>         0.0912
     49 H14        -2.1902    5.7764   -0.1645 H         1 <0>         0.0908
     50 H15        -3.0100    3.5012    0.3831 H         1 <0>         0.0823
     51 H16        -3.1425    3.9616    2.0974 H         1 <0>         0.0829
     52 H17        -0.7083    4.4301    2.1597 H         1 <0>         0.0712
     53 H18        -0.5759    3.9697    0.4454 H         1 <0>         0.0709
     54 H19        -1.7808    1.8359    1.8494 H         1 <0>         0.4172
     55 H20         3.4054    2.8240    1.9687 H         1 <0>         0.1807
     56 H21         4.8648    0.8621    2.6010 H         1 <0>         0.1525
     57 H22         3.7503   -3.5590    3.7086 H         1 <0>         0.4130
     58 H23         2.6786   -5.5798    4.1747 H         1 <0>         0.3948
     59 H24         0.5022   -6.4147    2.0216 H         1 <0>         0.0532
     60 H25        -1.0573   -6.5493    2.8692 H         1 <0>         0.0646
     61 H26        -0.3882   -4.9450    2.4860 H         1 <0>         0.0802
     62 H27         1.4546   -7.3693    5.4914 H         1 <0>         0.0630
     63 H28         0.0188   -7.9650    4.6242 H         1 <0>         0.0775
     64 H29         1.5783   -7.8304    3.7766 H         1 <0>         0.0630
     65 H30        -0.5618   -4.2978    4.8930 H         1 <0>         0.0802
     66 H31        -1.2309   -5.9021    5.2761 H         1 <0>         0.0646
     67 H32         0.2049   -5.3063    6.1433 H         1 <0>         0.0532
     68 H33         7.7940   -3.4061    1.7423 H         1 <0>         0.1465
     69 H34         8.7278   -3.3874    4.0178 H         1 <0>         0.1484
     70 H35         7.5004   -2.3017    5.8521 H         1 <0>         0.1466
     71 N7         -4.3291    7.3675    0.1894 N.4       1 <0>        -0.3960
     72 H36        -3.8167    7.9330    0.8763 H         1 <0>         0.4282
@<TRIPOS>BOND
     1    1    2 1
     2    1   36 1
     3    1   37 1
     4    1   38 1
     5    2   39 1
     6    2   40 1
     7    2   71 1
     8    3    4 1
     9    3   41 1
    10    3   42 1
    11    3   71 1
    12    4   43 1
    13    4   44 1
    14    4   45 1
    15    5    6 1
    16    5   46 1
    17    5   47 1
    18    5   71 1
    19    6    7 1
    20    6   48 1
    21    6   49 1
    22    7    8 1
    23    7   50 1
    24    7   51 1
    25    8    9 1
    26    8   52 1
    27    8   53 1
    28    9   10 1
    29    9   54 1
    30   10   19 ar
    31   10   11 ar
    32   11   12 ar
    33   12   13 ar
    34   12   55 1
    35   13   18 ar
    36   13   14 ar
    37   14   15 ar
    38   14   56 1
    39   15   16 ar
    40   15   28 1
    41   16   17 ar
    42   16   20 1
    43   17   18 ar
    44   18   19 ar
    45   20   21 am
    46   20   57 1
    47   21   22 2
    48   21   23 am
    49   23   24 1
    50   23   58 1
    51   24   25 1
    52   24   26 1
    53   24   27 1
    54   25   59 1
    55   25   60 1
    56   25   61 1
    57   26   62 1
    58   26   63 1
    59   26   64 1
    60   27   65 1
    61   27   66 1
    62   27   67 1
    63   28   33 ar
    64   28   29 ar
    65   29   30 ar
    66   29   35 1
    67   30   31 ar
    68   30   68 1
    69   31   32 ar
    70   31   69 1
    71   32   33 ar
    72   32   70 1
    73   33   34 1
    74   71   72 1
@<TRIPOS>MOLECULE
ZINC01486219
   63    66     0     0     0
SMALL
USER_CHARGES
3-(2,6-dichlorophenyl)-8-[4-(2-diethylaminoethoxy)phenyl]amino-5-methyl-5,7,9-triazabicyclo[4.4.0]deca-2,7,9,11-tetraen-4-one
@<TRIPOS>ATOM
      1 C1          4.3966   -4.7837   -2.5468 C.3       1 <0>        -0.1870
      2 C2          2.8964   -4.6021   -2.7861 C.3       1 <0>        -0.0162
      3 C3          2.4461   -6.8910   -2.1372 C.3       1 <0>        -0.0118
      4 C4          1.8425   -7.2999   -3.4823 C.3       1 <0>        -0.1890
      5 C5          2.4154   -5.1324   -0.4731 C.3       1 <0>        -0.0017
      6 C6          1.8626   -3.7372   -0.1755 C.3       1 <0>         0.0258
      7 O1          0.4386   -3.7538   -0.2937 O.3       1 <0>        -0.3284
      8 C7         -0.2140   -2.5840   -0.0593 C.ar      1 <0>         0.0962
      9 C8         -1.5967   -2.5300   -0.1569 C.ar      1 <0>        -0.1190
     10 C9         -2.2601   -1.3423    0.0800 C.ar      1 <0>        -0.0693
     11 C10        -1.5427   -0.2019    0.4166 C.ar      1 <0>         0.1456
     12 C11        -0.1586   -0.2569    0.5145 C.ar      1 <0>        -0.1051
     13 C12         0.5033   -1.4453    0.2768 C.ar      1 <0>        -0.1797
     14 N1         -2.2146    1.0029    0.6565 N.pl3     1 <0>        -0.6299
     15 C13        -3.4618    0.9918    1.2505 C.ar      1 <0>         0.6044
     16 N2         -3.9572   -0.1650    1.6772 N.ar      1 <0>        -0.5742
     17 C14        -5.1437   -0.2299    2.2512 C.ar      1 <0>         0.2632
     18 C15        -5.8809    0.9543    2.4052 C.ar      1 <0>        -0.2686
     19 C16        -7.1573    0.9487    3.0126 C.2       1 <0>         0.0223
     20 C17        -7.8369    2.1304    3.1401 C.2       1 <0>        -0.1517
     21 C18        -7.2276    3.3671    2.6461 C.2       1 <0>         0.5544
     22 O2         -7.8250    4.4230    2.7559 O.2       1 <0>        -0.4939
     23 N3         -6.0096    3.3430    2.0714 N.am      1 <0>        -0.5055
     24 C19        -5.3213    2.1634    1.9394 C.ar      1 <0>         0.4667
     25 N4         -4.1173    2.1350    1.3785 N.ar      1 <0>        -0.5922
     26 C20        -5.4137    4.5888    1.5828 C.3       1 <0>         0.0688
     27 C21        -9.1768    2.1577    3.7717 C.ar      1 <0>        -0.0161
     28 C22       -10.3226    1.9980    2.9915 C.ar      1 <0>        -0.0058
     29 C23       -11.5685    2.0201    3.5872 C.ar      1 <0>        -0.1054
     30 C24       -11.6824    2.2097    4.9527 C.ar      1 <0>        -0.0846
     31 C25       -10.5507    2.3740    5.7310 C.ar      1 <0>        -0.1053
     32 C26        -9.2987    2.3491    5.1486 C.ar      1 <0>        -0.0060
     33 Cl1        -7.8797    2.5560    6.1271 Cl        1 <0>        -0.0505
     34 Cl2       -10.1822    1.7665    1.2768 Cl        1 <0>        -0.0510
     35 H1          4.9531   -4.1230   -3.2115 H         1 <0>         0.1068
     36 H2          4.6315   -4.5389   -1.5110 H         1 <0>         0.0793
     37 H3          4.6739   -5.8185   -2.7475 H         1 <0>         0.0822
     38 H4          2.6589   -4.8621   -3.8177 H         1 <0>         0.1316
     39 H5          2.6219   -3.5637   -2.6008 H         1 <0>         0.1265
     40 H6          3.5263   -7.0339   -2.1651 H         1 <0>         0.1326
     41 H7          2.0186   -7.5058   -1.3452 H         1 <0>         0.1298
     42 H8          2.0860   -8.3423   -3.6879 H         1 <0>         0.1065
     43 H9          0.7598   -7.1800   -3.4463 H         1 <0>         0.0812
     44 H10         2.2519   -6.6689   -4.2712 H         1 <0>         0.0791
     45 H11         3.4910   -5.1423   -0.2968 H         1 <0>         0.1506
     46 H12         1.9336   -5.8608    0.1791 H         1 <0>         0.1410
     47 H13         2.2779   -3.0226   -0.8861 H         1 <0>         0.0853
     48 H14         2.1397   -3.4450    0.8374 H         1 <0>         0.1080
     49 H15        -2.1544   -3.4170   -0.4187 H         1 <0>         0.1368
     50 H16        -3.3362   -1.2993   -0.0007 H         1 <0>         0.1474
     51 H17         0.4000    0.6295    0.7766 H         1 <0>         0.1342
     52 H18         1.5798   -1.4882    0.3529 H         1 <0>         0.1308
     53 H19        -1.8044    1.8453    0.4058 H         1 <0>         0.4284
     54 H20        -5.5388   -1.1742    2.5955 H         1 <0>         0.1893
     55 H21        -7.5900    0.0261    3.3703 H         1 <0>         0.1521
     56 H22        -5.7018    4.7463    0.5434 H         1 <0>         0.0759
     57 H23        -5.7679    5.4230    2.1883 H         1 <0>         0.0941
     58 H24        -4.3278    4.5242    1.6530 H         1 <0>         0.0949
     59 H25       -12.4560    1.8924    2.9851 H         1 <0>         0.1450
     60 H26       -12.6591    2.2300    5.4131 H         1 <0>         0.1471
     61 H27       -10.6465    2.5224    6.7965 H         1 <0>         0.1451
     62 N5          2.1179   -5.4728   -1.8803 N.4       1 <0>        -0.3969
     63 H28         1.1169   -5.3253   -2.0547 H         1 <0>         0.4358
@<TRIPOS>BOND
     1    1    2 1
     2    1   35 1
     3    1   36 1
     4    1   37 1
     5    2   38 1
     6    2   39 1
     7    2   62 1
     8    3    4 1
     9    3   40 1
    10    3   41 1
    11    3   62 1
    12    4   42 1
    13    4   43 1
    14    4   44 1
    15    5    6 1
    16    5   45 1
    17    5   46 1
    18    5   62 1
    19    6    7 1
    20    6   47 1
    21    6   48 1
    22    7    8 1
    23    8   13 ar
    24    8    9 ar
    25    9   10 ar
    26    9   49 1
    27   10   11 ar
    28   10   50 1
    29   11   12 ar
    30   11   14 1
    31   12   13 ar
    32   12   51 1
    33   13   52 1
    34   14   15 1
    35   14   53 1
    36   15   25 ar
    37   15   16 ar
    38   16   17 ar
    39   17   18 ar
    40   17   54 1
    41   18   24 ar
    42   18   19 1
    43   19   20 2
    44   19   55 1
    45   20   21 1
    46   20   27 1
    47   21   22 2
    48   21   23 am
    49   23   24 1
    50   23   26 1
    51   24   25 ar
    52   26   56 1
    53   26   57 1
    54   26   58 1
    55   27   32 ar
    56   27   28 ar
    57   28   29 ar
    58   28   34 1
    59   29   30 ar
    60   29   59 1
    61   30   31 ar
    62   30   60 1
    63   31   32 ar
    64   31   61 1
    65   32   33 1
    66   62   63 1
@<TRIPOS>MOLECULE
ZINC06718642
   44    46     0     0     0
SMALL
USER_CHARGES
1-[2-amino-7-(3-hydroxypropyl)-9-(p-tolyl)-3,5,7-triazabicyclo[4.3.0]nona-2,4,8,10-tetraen-8-yl]-2-fluoro-ethanone
@<TRIPOS>ATOM
      1 C1         -0.3086   -6.7342   -4.2199 C.3       1 <0>        -0.1202
      2 C2         -0.2380   -5.5323   -3.3135 C.ar      1 <0>        -0.0734
      3 C3         -1.2449   -5.3043   -2.3922 C.ar      1 <0>        -0.1189
      4 C4         -1.1861   -4.2063   -1.5593 C.ar      1 <0>        -0.1029
      5 C5         -0.1080   -3.3240   -1.6476 C.ar      1 <0>        -0.0516
      6 C6          0.9016   -3.5568   -2.5831 C.ar      1 <0>        -0.0906
      7 C7          0.8333   -4.6615   -3.4065 C.ar      1 <0>        -0.1155
      8 C8         -0.0387   -2.1445   -0.7581 C.2       1 <0>        -0.0252
      9 C9          0.1543   -2.1487    0.6904 C.ar      1 <0>        -0.2585
     10 C10         0.3258   -3.1516    1.6613 C.ar      1 <0>         0.5060
     11 N1          0.4796   -2.7822    2.9297 N.ar      1 <0>        -0.6024
     12 C11         0.4721   -1.5071    3.2724 C.ar      1 <0>         0.3757
     13 N2          0.3151   -0.5355    2.3995 N.ar      1 <0>        -0.5717
     14 C12         0.1531   -0.8016    1.1032 C.ar      1 <0>         0.3655
     15 N3         -0.0266   -0.0195   -0.0022 N.pl3     1 <0>        -0.4316
     16 C13        -0.1493   -0.8097   -1.1320 C.2       1 <0>        -0.0111
     17 C14        -0.3505   -0.3386   -2.4464 C.2       1 <0>         0.3990
     18 O1          0.6036   -0.1211   -3.1664 O.2       1 <0>        -0.3919
     19 C15        -1.7488   -0.1052   -2.9575 C.3       1 <0>         0.0406
     20 F1         -1.6987    0.2390   -4.3126 F         1 <0>        -0.1899
     21 C16        -0.0871    1.4443    0.0075 C.3       1 <0>         0.1088
     22 C17         1.3204    2.0141   -0.1794 C.3       1 <0>        -0.1409
     23 C18         1.2572    3.5428   -0.1693 C.3       1 <0>         0.0822
     24 O2          2.5718    4.0751   -0.3438 O.3       1 <0>        -0.5712
     25 N4          0.3346   -4.4851    1.3068 N.pl3     1 <0>        -0.8214
     26 H1         -0.8373   -6.4684   -5.1352 H         1 <0>         0.0744
     27 H2          0.7009   -7.0635   -4.4660 H         1 <0>         0.0691
     28 H3         -0.8404   -7.5400   -3.7140 H         1 <0>         0.0692
     29 H4         -2.0785   -5.9877   -2.3250 H         1 <0>         0.1287
     30 H5         -1.9727   -4.0294   -0.8406 H         1 <0>         0.1269
     31 H6          1.7362   -2.8756   -2.6595 H         1 <0>         0.1261
     32 H7          1.6158   -4.8450   -4.1279 H         1 <0>         0.1280
     33 H8          0.6008   -1.2508    4.3136 H         1 <0>         0.2032
     34 H9         -2.2883   -0.9397   -2.8453 H         1 <0>         0.1014
     35 H10        -2.2112    0.7050   -2.3937 H         1 <0>         0.1136
     36 H11        -0.7286    1.7868   -0.8045 H         1 <0>         0.0897
     37 H12        -0.4935    1.7848    0.9599 H         1 <0>         0.1094
     38 H13         1.9619    1.6716    0.6326 H         1 <0>         0.0832
     39 H14         1.7268    1.6736   -1.1318 H         1 <0>         0.0783
     40 H15         0.6158    3.8853   -0.9813 H         1 <0>         0.0485
     41 H16         0.8509    3.8833    0.7831 H         1 <0>         0.0525
     42 H17         2.6077    5.0414   -0.3475 H         1 <0>         0.3847
     43 H18         0.4541   -5.1668    1.9865 H         1 <0>         0.4109
     44 H19         0.2213   -4.7409    0.3780 H         1 <0>         0.4132
@<TRIPOS>BOND
     1    1    2 1
     2    1   26 1
     3    1   27 1
     4    1   28 1
     5    2    7 ar
     6    2    3 ar
     7    3    4 ar
     8    3   29 1
     9    4    5 ar
    10    4   30 1
    11    5    6 ar
    12    5    8 1
    13    6    7 ar
    14    6   31 1
    15    7   32 1
    16    8   16 2
    17    8    9 1
    18    9   14 ar
    19    9   10 ar
    20   10   11 ar
    21   10   25 1
    22   11   12 ar
    23   12   13 ar
    24   12   33 1
    25   13   14 ar
    26   14   15 1
    27   15   16 1
    28   15   21 1
    29   16   17 1
    30   17   18 2
    31   17   19 1
    32   19   20 1
    33   19   34 1
    34   19   35 1
    35   21   22 1
    36   21   36 1
    37   21   37 1
    38   22   23 1
    39   22   38 1
    40   22   39 1
    41   23   24 1
    42   23   40 1
    43   23   41 1
    44   24   42 1
    45   25   43 1
    46   25   44 1
@<TRIPOS>MOLECULE
ZINC03820040
   62    66     0     0     0
SMALL
USER_CHARGES
N-[4-[4-(4-methylpiperazin-1-yl)-6-[(5-methyl-2H-pyrazol-3-yl)amino]pyrimidin-2-yl]sulfanylphenyl]cyclopropanecarboxamide
@<TRIPOS>ATOM
      1 C1          1.8035   -7.6837    0.5070 C.3       1 <0>        -0.0779
      2 C2          2.3685   -6.3674    0.0389 C.2       1 <0>         0.0949
      3 C3          1.9325   -5.1020    0.4407 C.2       1 <0>        -0.2905
      4 C4          2.6904   -4.1743   -0.2066 C.2       1 <0>         0.3252
      5 N1          3.5799   -4.8447   -0.9836 N.pl3     1 <0>        -0.4853
      6 H1          4.2729   -4.4328   -1.5753 H         1 <0>         0.4473
      7 N2          3.3537   -6.2159   -0.8085 N.2       1 <0>        -0.2711
      8 N3          2.5778   -2.7905   -0.0888 N.pl3     1 <0>        -0.6296
      9 C5          1.3376   -2.2123    0.1391 C.ar      1 <0>         0.4706
     10 C6          0.1755   -2.9717    0.0343 C.ar      1 <0>        -0.2983
     11 C7         -1.0466   -2.3490    0.2714 C.ar      1 <0>         0.3791
     12 N4         -1.0643   -1.0564    0.5886 N.ar      1 <0>        -0.5664
     13 C8          0.0620   -0.3646    0.6795 C.ar      1 <0>         0.3511
     14 N5          1.2425   -0.9231    0.4557 N.ar      1 <0>        -0.5606
     15 S1         -0.0125    1.3444    1.1018 S.3       1 <0>         0.1303
     16 C9          1.7078    1.7032    1.2298 C.ar      1 <0>        -0.1638
     17 C10         2.3806    1.4637    2.4214 C.ar      1 <0>        -0.0284
     18 C11         3.7293    1.7409    2.5200 C.ar      1 <0>        -0.1315
     19 C12         4.4114    2.2681    1.4313 C.ar      1 <0>         0.1902
     20 C13         3.7379    2.5125    0.2417 C.ar      1 <0>        -0.1573
     21 C14         2.3903    2.2311    0.1410 C.ar      1 <0>        -0.0288
     22 N6          5.7793    2.5539    1.5333 N.am      1 <0>        -0.6744
     23 C15         6.5739    1.7808    2.2997 C.2       1 <0>         0.5466
     24 O1          6.1269    0.7811    2.8213 O.2       1 <0>        -0.5140
     25 C16         8.0178    2.1584    2.5086 C.3       1 <0>        -0.2022
     26 C17         9.0818    1.2604    1.8742 C.3       1 <0>        -0.1494
     27 C18         8.8679    1.2402    3.3890 C.3       1 <0>        -0.1425
     28 N7         -2.2296   -3.0657    0.1789 N.pl3     1 <0>        -0.4710
     29 C19        -2.3617   -3.6957   -1.1422 C.3       1 <0>         0.0277
     30 C20        -3.6379   -4.5399   -1.1765 C.3       1 <0>         0.0040
     31 C21        -4.6643   -3.0537    0.4349 C.3       1 <0>        -0.0004
     32 C22        -3.3881   -2.2095    0.4692 C.3       1 <0>         0.0347
     33 C23        -6.0501   -4.4431   -0.9842 C.3       1 <0>        -0.0407
     34 H2          2.3381   -8.0122    1.3982 H         1 <0>         0.0831
     35 H3          0.7460   -7.5623    0.7417 H         1 <0>         0.0784
     36 H4          1.9177   -8.4287   -0.2805 H         1 <0>         0.0774
     37 H5          1.1347   -4.8964    1.1389 H         1 <0>         0.1550
     38 H6          3.3667   -2.2314   -0.1662 H         1 <0>         0.4241
     39 H7          0.2211   -4.0192   -0.2246 H         1 <0>         0.1631
     40 H8          1.8494    1.0573    3.2693 H         1 <0>         0.1319
     41 H9          4.2533    1.5509    3.4451 H         1 <0>         0.1405
     42 H10         4.2686    2.9225   -0.6049 H         1 <0>         0.1339
     43 H11         1.8666    2.4209   -0.7843 H         1 <0>         0.1341
     44 H12         6.1543    3.3081    1.0523 H         1 <0>         0.4168
     45 H13         8.2224    3.2282    2.5520 H         1 <0>         0.1306
     46 H14         8.7374    0.3965    1.3057 H         1 <0>         0.0995
     47 H15         9.9866    1.7393    1.5000 H         1 <0>         0.1100
     48 H16         9.6320    1.7059    4.0114 H         1 <0>         0.1092
     49 H17         8.3827    0.3633    3.8175 H         1 <0>         0.1093
     50 H18        -2.4158   -2.9234   -1.9095 H         1 <0>         0.0737
     51 H19        -1.4982   -4.3342   -1.3286 H         1 <0>         0.1318
     52 H20        -3.5722   -5.3290   -0.4274 H         1 <0>         0.1439
     53 H21        -3.7533   -4.9852   -2.1646 H         1 <0>         0.1412
     54 H22        -4.6102   -3.8259    1.2022 H         1 <0>         0.1407
     55 H23        -5.5278   -2.4152    0.6217 H         1 <0>         0.1407
     56 H24        -3.2729   -1.7645    1.4575 H         1 <0>         0.1357
     57 H25        -3.4537   -1.4201   -0.2796 H         1 <0>         0.0793
     58 H26        -6.8948   -3.7714   -0.8313 H         1 <0>         0.1238
     59 H27        -6.1225   -4.8989   -1.9717 H         1 <0>         0.1230
     60 H28        -6.0632   -5.2226   -0.2224 H         1 <0>         0.1251
     61 N8         -4.7966   -3.6630   -0.9051 N.4       1 <0>        -0.4014
     62 H29        -4.8229   -2.9169   -1.6099 H         1 <0>         0.4281
@<TRIPOS>BOND
     1    1    2 1
     2    1   34 1
     3    1   35 1
     4    1   36 1
     5    2    7 2
     6    2    3 1
     7    3    4 2
     8    3   37 1
     9    4    5 1
    10    4    8 1
    11    5    6 1
    12    5    7 1
    13    8    9 1
    14    8   38 1
    15    9   14 ar
    16    9   10 ar
    17   10   11 ar
    18   10   39 1
    19   11   12 ar
    20   11   28 1
    21   12   13 ar
    22   13   14 ar
    23   13   15 1
    24   15   16 1
    25   16   21 ar
    26   16   17 ar
    27   17   18 ar
    28   17   40 1
    29   18   19 ar
    30   18   41 1
    31   19   20 ar
    32   19   22 1
    33   20   21 ar
    34   20   42 1
    35   21   43 1
    36   22   23 am
    37   22   44 1
    38   23   24 2
    39   23   25 1
    40   25   27 1
    41   25   26 1
    42   25   45 1
    43   26   27 1
    44   26   46 1
    45   26   47 1
    46   27   48 1
    47   27   49 1
    48   28   32 1
    49   28   29 1
    50   29   30 1
    51   29   50 1
    52   29   51 1
    53   30   52 1
    54   30   53 1
    55   30   61 1
    56   31   32 1
    57   31   54 1
    58   31   55 1
    59   31   61 1
    60   32   56 1
    61   32   57 1
    62   33   58 1
    63   33   59 1
    64   33   60 1
    65   33   61 1
    66   61   62 1
@<TRIPOS>MOLECULE
ZINC13132888
   46    49     0     0     0
SMALL
USER_CHARGES

@<TRIPOS>ATOM
      1 C1         -0.4024    1.4640   -0.2596 C.3       1 <0>        -0.1435
      2 C2         -0.2022   -0.0486   -0.1459 C.3       1 <0>         0.1912
      3 C3          0.5317   -0.3694    1.1577 C.3       1 <0>        -0.1615
      4 C4         -1.5645   -0.7450   -0.1490 C.3       1 <0>        -0.1622
      5 N1          0.5913   -0.5229   -1.2824 N.pl3     1 <0>        -0.3634
      6 C5          0.9612   -1.8141   -1.5150 C.ar      1 <0>         0.3746
      7 C6          1.7077   -1.8088   -2.7096 C.ar      1 <0>        -0.3278
      8 C7          1.7573   -0.4719   -3.1602 C.2       1 <0>         0.1297
      9 N2          1.0952    0.2715   -2.3201 N.2       1 <0>        -0.2391
     10 C8          2.4532    0.0125   -4.4060 C.3       1 <0>        -0.0064
     11 C9          1.4787    0.0187   -5.5556 C.ar      1 <0>        -0.0714
     12 C10         1.4067   -1.0488   -6.3972 C.ar      1 <0>        -0.1084
     13 C11         0.5121   -1.0612   -7.4653 C.ar      1 <0>        -0.1155
     14 C12        -0.3156   -0.0059   -7.6985 C.ar      1 <0>        -0.1014
     15 C13        -0.2700    1.1138   -6.8511 C.ar      1 <0>        -0.0506
     16 C14         0.6357    1.1238   -5.7608 C.ar      1 <0>        -0.0393
     17 C15         0.6771    2.2415   -4.9097 C.ar      1 <0>        -0.0979
     18 C16        -0.1547    3.2939   -5.1394 C.ar      1 <0>        -0.1148
     19 C17        -1.0498    3.2813   -6.2077 C.ar      1 <0>        -0.1134
     20 C18        -1.1085    2.2222   -7.0604 C.ar      1 <0>        -0.1091
     21 C19         2.2169   -3.0332   -3.1834 C.ar      1 <0>         0.5199
     22 N3          1.9692   -4.1339   -2.4817 N.ar      1 <0>        -0.6092
     23 C20         1.2632   -4.0896   -1.3658 C.ar      1 <0>         0.3850
     24 N4          0.7670   -2.9710   -0.8841 N.ar      1 <0>        -0.5722
     25 N5          2.9554   -3.0885   -4.3491 N.pl3     1 <0>        -0.8266
     26 H1          0.5681    1.9601   -0.2574 H         1 <0>         0.0677
     27 H2         -0.9252    1.6925   -1.1883 H         1 <0>         0.0677
     28 H3         -0.9928    1.8169    0.5860 H         1 <0>         0.0748
     29 H4         -0.0587   -0.0165    2.0033 H         1 <0>         0.0794
     30 H5          0.6743   -1.4470    1.2387 H         1 <0>         0.0761
     31 H6          1.5022    0.1268    1.1599 H         1 <0>         0.0599
     32 H7         -2.0873   -0.5165   -1.0777 H         1 <0>         0.0592
     33 H8         -1.4218   -1.8226   -0.0681 H         1 <0>         0.0763
     34 H9         -2.1548   -0.3922    0.6966 H         1 <0>         0.0794
     35 H10         2.8290    1.0226   -4.2429 H         1 <0>         0.1038
     36 H11         3.2855   -0.6517   -4.6388 H         1 <0>         0.0893
     37 H12         2.0530   -1.8987   -6.2348 H         1 <0>         0.1192
     38 H13         0.4751   -1.9207   -8.1182 H         1 <0>         0.1252
     39 H14        -1.0035   -0.0292   -8.5308 H         1 <0>         0.1280
     40 H15         1.3650    2.2650   -4.0775 H         1 <0>         0.1310
     41 H16        -0.1208    4.1515   -4.4839 H         1 <0>         0.1230
     42 H17        -1.6992    4.1294   -6.3675 H         1 <0>         0.1230
     43 H18        -1.8067    2.2268   -7.8844 H         1 <0>         0.1269
     44 H19         1.0860   -5.0091   -0.8278 H         1 <0>         0.2029
     45 H20         3.2072   -2.2692   -4.8032 H         1 <0>         0.4085
     46 H21         3.2222   -3.9468   -4.7139 H         1 <0>         0.4119
@<TRIPOS>BOND
     1    1    2 1
     2    1   26 1
     3    1   27 1
     4    1   28 1
     5    2    3 1
     6    2    4 1
     7    2    5 1
     8    3   29 1
     9    3   30 1
    10    3   31 1
    11    4   32 1
    12    4   33 1
    13    4   34 1
    14    5    9 1
    15    5    6 1
    16    6   24 ar
    17    6    7 ar
    18    7    8 1
    19    7   21 ar
    20    8    9 2
    21    8   10 1
    22   10   11 1
    23   10   35 1
    24   10   36 1
    25   11   16 ar
    26   11   12 ar
    27   12   13 ar
    28   12   37 1
    29   13   14 ar
    30   13   38 1
    31   14   15 ar
    32   14   39 1
    33   15   20 ar
    34   15   16 ar
    35   16   17 ar
    36   17   18 ar
    37   17   40 1
    38   18   19 ar
    39   18   41 1
    40   19   20 ar
    41   19   42 1
    42   20   43 1
    43   21   22 ar
    44   21   25 1
    45   22   23 ar
    46   23   24 ar
    47   23   44 1
    48   25   45 1
    49   25   46 1
@<TRIPOS>MOLECULE
ZINC13862907
   29    31     0     0     0
SMALL
USER_CHARGES
6-(2,6-dibromophenyl)pyrido[2,3-d]pyrimidine-2,7-diamine
@<TRIPOS>ATOM
      1 C1          7.1101    5.6538   -0.0391 C.ar      1 <0>        -0.1018
      2 C2          6.5169    5.2903   -1.2346 C.ar      1 <0>        -0.0760
      3 C3          5.3507    4.5505   -1.2331 C.ar      1 <0>        -0.0783
      4 C4          4.7712    4.1699   -0.0229 C.ar      1 <0>         0.0134
      5 C5          5.3714    4.5441    1.1791 C.ar      1 <0>        -0.0784
      6 C6          6.5401    5.2798    1.1644 C.ar      1 <0>        -0.0760
      7 Br1         4.5898    4.0401    2.8256 Br        1 <0>        -0.0252
      8 C7          3.5191    3.3762   -0.0143 C.ar      1 <0>        -0.1993
      9 C8          3.5697    1.9917   -0.0218 C.ar      1 <0>         0.0590
     10 C9          2.3540    1.2880   -0.0135 C.ar      1 <0>        -0.3149
     11 C10         2.3094   -0.1163   -0.0210 C.ar      1 <0>         0.2673
     12 N1          1.1318   -0.7080   -0.0130 N.ar      1 <0>        -0.5850
     13 C11         0.0021   -0.0041    0.0020 C.ar      1 <0>         0.6028
     14 N2         -0.0158    1.3153    0.0093 N.ar      1 <0>        -0.5874
     15 C12         1.1302    2.0078    0.0021 C.ar      1 <0>         0.4542
     16 N3          1.1374    3.3419    0.0087 N.ar      1 <0>        -0.5620
     17 C13         2.2651    4.0248    0.0012 C.ar      1 <0>         0.5121
     18 N4          2.2187    5.4064    0.0090 N.pl3     1 <0>        -0.8483
     19 N5         -1.2016   -0.6831    0.0098 N.pl3     1 <0>        -0.8369
     20 Br2         4.5409    4.0551   -2.8686 Br        1 <0>        -0.0252
     21 H1          8.0220    6.2324   -0.0454 H         1 <0>         0.1442
     22 H2          6.9667    5.5853   -2.1710 H         1 <0>         0.1429
     23 H3          7.0080    5.5667    2.0945 H         1 <0>         0.1429
     24 H4          4.5149    1.4694   -0.0339 H         1 <0>         0.1422
     25 H5          3.2195   -0.6976   -0.0328 H         1 <0>         0.1744
     26 H6          1.2482    5.9241    0.0211 H         1 <0>         0.4338
     27 H7          3.1523    5.9881    0.0031 H         1 <0>         0.4276
     28 H8         -2.1486   -0.1236    0.0222 H         1 <0>         0.4396
     29 H9         -1.2127   -1.7830    0.0036 H         1 <0>         0.4382
@<TRIPOS>BOND
     1    1    6 ar
     2    1    2 ar
     3    1   21 1
     4    2    3 ar
     5    2   22 1
     6    3    4 ar
     7    3   20 1
     8    4    5 ar
     9    4    8 1
    10    5    6 ar
    11    5    7 1
    12    6   23 1
    13    8   17 ar
    14    8    9 ar
    15    9   10 ar
    16    9   24 1
    17   10   15 ar
    18   10   11 ar
    19   11   12 ar
    20   11   25 1
    21   12   13 ar
    22   13   14 ar
    23   13   19 1
    24   14   15 ar
    25   15   16 ar
    26   16   17 ar
    27   17   18 1
    28   18   26 1
    29   18   27 1
    30   19   28 1
    31   19   29 1
@<TRIPOS>MOLECULE
ZINC13862904
   35    37     0     0     0
SMALL
USER_CHARGES
6-(2,6-dimethylphenyl)pyrido[2,3-d]pyrimidine-2,7-diamine
@<TRIPOS>ATOM
      1 C1          4.7461    4.1401    2.4934 C.3       1 <0>        -0.1164
      2 C2          5.3702    4.5429    1.1822 C.ar      1 <0>        -0.0624
      3 C3          6.5388    5.2768    1.1693 C.ar      1 <0>        -0.1264
      4 C4          7.1100    5.6517   -0.0335 C.ar      1 <0>        -0.1047
      5 C5          6.5169    5.2897   -1.2296 C.ar      1 <0>        -0.1272
      6 C6          5.3513    4.5510   -1.2291 C.ar      1 <0>        -0.0617
      7 C7          4.7714    4.1699   -0.0201 C.ar      1 <0>        -0.0506
      8 C8          3.5191    3.3761   -0.0129 C.ar      1 <0>        -0.1717
      9 C9          3.5696    1.9917   -0.0217 C.ar      1 <0>         0.0358
     10 C10         2.3540    1.2880   -0.0135 C.ar      1 <0>        -0.3152
     11 C11         2.3094   -0.1163   -0.0206 C.ar      1 <0>         0.2635
     12 N1          1.1319   -0.7080   -0.0125 N.ar      1 <0>        -0.5851
     13 C12         0.0021   -0.0041    0.0020 C.ar      1 <0>         0.6005
     14 N2         -0.0158    1.3154    0.0093 N.ar      1 <0>        -0.5870
     15 C13         1.1302    2.0078    0.0021 C.ar      1 <0>         0.4468
     16 N3          1.1374    3.3418    0.0091 N.ar      1 <0>        -0.5667
     17 C14         2.2651    4.0248    0.0020 C.ar      1 <0>         0.4959
     18 N4          2.2188    5.4063    0.0099 N.pl3     1 <0>        -0.8497
     19 N5         -1.2015   -0.6830    0.0094 N.pl3     1 <0>        -0.8378
     20 C15         4.7068    4.1565   -2.5330 C.3       1 <0>        -0.1213
     21 H1          5.3577    4.5232    3.3236 H         1 <0>         0.0668
     22 H2          4.6934    3.0430    2.5527 H         1 <0>         0.0697
     23 H3          3.7317    4.5601    2.5610 H         1 <0>         0.0684
     24 H4          7.0061    5.5626    2.1001 H         1 <0>         0.1238
     25 H5          8.0224    6.2296   -0.0388 H         1 <0>         0.1235
     26 H6          6.9671    5.5855   -2.1657 H         1 <0>         0.1237
     27 H7          4.5149    1.4694   -0.0335 H         1 <0>         0.1421
     28 H8          3.2195   -0.6977   -0.0320 H         1 <0>         0.1739
     29 H9          1.2483    5.9240    0.0215 H         1 <0>         0.4307
     30 H10         3.1524    5.9879    0.0046 H         1 <0>         0.4326
     31 H11        -2.1485   -0.1235    0.0214 H         1 <0>         0.4393
     32 H12        -1.2126   -1.7829    0.0033 H         1 <0>         0.4379
     33 H13         3.7946    3.5762   -2.3303 H         1 <0>         0.0659
     34 H14         5.4085    3.5441   -3.1183 H         1 <0>         0.0721
     35 H15         4.4470    5.0613   -3.1021 H         1 <0>         0.0710
@<TRIPOS>BOND
     1    1    2 1
     2    1   21 1
     3    1   22 1
     4    1   23 1
     5    2    7 ar
     6    2    3 ar
     7    3    4 ar
     8    3   24 1
     9    4    5 ar
    10    4   25 1
    11    5    6 ar
    12    5   26 1
    13    6    7 ar
    14    6   20 1
    15    7    8 1
    16    8   17 ar
    17    8    9 ar
    18    9   10 ar
    19    9   27 1
    20   10   15 ar
    21   10   11 ar
    22   11   12 ar
    23   11   28 1
    24   12   13 ar
    25   13   14 ar
    26   13   19 1
    27   14   15 ar
    28   15   16 ar
    29   16   17 ar
    30   17   18 1
    31   18   29 1
    32   18   30 1
    33   19   31 1
    34   19   32 1
    35   20   33 1
    36   20   34 1
    37   20   35 1
@<TRIPOS>MOLECULE
ZINC01386783
   47    50     0     0     0
SMALL
USER_CHARGES
6,7-dimethoxy-N-(4-phenoxyphenyl)-quinazolin-4-amine
@<TRIPOS>ATOM
      1 C1         -0.1750   -6.6634    1.0394 C.3       1 <0>         0.0218
      2 O1          1.1373   -7.2046    0.8756 O.3       1 <0>        -0.3006
      3 C2          2.1343   -6.3279    0.5812 C.ar      1 <0>         0.1087
      4 C3          1.8493   -4.9978    0.4567 C.ar      1 <0>        -0.1467
      5 C4          2.8748   -4.0945    0.1532 C.ar      1 <0>        -0.1846
      6 C5          4.2002   -4.5635   -0.0230 C.ar      1 <0>         0.2016
      7 C6          4.4697   -5.9310    0.1093 C.ar      1 <0>        -0.1845
      8 C7          3.4431   -6.7993    0.4084 C.ar      1 <0>         0.1633
      9 O2          3.7018   -8.1266    0.5378 O.3       1 <0>        -0.2975
     10 C8          5.0552   -8.5451    0.3500 C.3       1 <0>         0.0203
     11 N1          5.1648   -3.6765   -0.3140 N.ar      1 <0>        -0.5451
     12 C9          4.8818   -2.4010   -0.4320 C.ar      1 <0>         0.3432
     13 N2          3.6586   -1.9182   -0.2817 N.ar      1 <0>        -0.5825
     14 C10         2.6333   -2.7070    0.0129 C.ar      1 <0>         0.4662
     15 N3          1.3640   -2.1890    0.1726 N.pl3     1 <0>        -0.6384
     16 C11         1.1243   -0.8334   -0.0807 C.ar      1 <0>         0.1181
     17 C12         1.8016   -0.1881   -1.1072 C.ar      1 <0>        -0.0666
     18 C13         1.5643    1.1491   -1.3568 C.ar      1 <0>        -0.1740
     19 C14         0.6495    1.8480   -0.5823 C.ar      1 <0>         0.1111
     20 C15        -0.0274    1.2040    0.4433 C.ar      1 <0>        -0.1256
     21 C16         0.2088   -0.1331    0.6941 C.ar      1 <0>        -0.1061
     22 O3          0.4164    3.1646   -0.8287 O.3       1 <0>        -0.2591
     23 C17         1.1082    3.7572   -1.8369 C.ar      1 <0>         0.0831
     24 C18         2.1886    4.5791   -1.5492 C.ar      1 <0>        -0.1214
     25 C19         2.8928    5.1769   -2.5763 C.ar      1 <0>        -0.1046
     26 C20         2.5160    4.9646   -3.8897 C.ar      1 <0>        -0.1178
     27 C21         1.4366    4.1503   -4.1789 C.ar      1 <0>        -0.1058
     28 C22         0.7319    3.5462   -3.1558 C.ar      1 <0>        -0.1330
     29 H1         -0.4820   -6.1695    0.1174 H         1 <0>         0.0572
     30 H2         -0.8735   -7.4676    1.2707 H         1 <0>         0.1067
     31 H3         -0.1707   -5.9402    1.8549 H         1 <0>         0.0571
     32 H4          0.8376   -4.6446    0.5921 H         1 <0>         0.1390
     33 H5          5.4752   -6.3025   -0.0226 H         1 <0>         0.1556
     34 H6          5.3813   -8.2798   -0.6557 H         1 <0>         0.0620
     35 H7          5.6936   -8.0496    1.0815 H         1 <0>         0.0621
     36 H8          5.1231   -9.6250    0.4809 H         1 <0>         0.1071
     37 H9          5.6819   -1.7148   -0.6672 H         1 <0>         0.1965
     38 H10         0.6381   -2.7644    0.4604 H         1 <0>         0.4183
     39 H11         2.5134   -0.7321   -1.7104 H         1 <0>         0.1382
     40 H12         2.0941    1.6521   -2.1522 H         1 <0>         0.1321
     41 H13        -0.7396    1.7486    1.0455 H         1 <0>         0.1374
     42 H14        -0.3185   -0.6344    1.4923 H         1 <0>         0.1333
     43 H15         2.4807    4.7485   -0.5234 H         1 <0>         0.1322
     44 H16         3.7359    5.8139   -2.3532 H         1 <0>         0.1319
     45 H17         3.0656    5.4359   -4.6911 H         1 <0>         0.1290
     46 H18         1.1443    3.9861   -5.2055 H         1 <0>         0.1305
     47 H19        -0.1114    2.9106   -3.3821 H         1 <0>         0.1302
@<TRIPOS>BOND
     1    1    2 1
     2    1   29 1
     3    1   30 1
     4    1   31 1
     5    2    3 1
     6    3    8 ar
     7    3    4 ar
     8    4    5 ar
     9    4   32 1
    10    5   14 ar
    11    5    6 ar
    12    6    7 ar
    13    6   11 ar
    14    7    8 ar
    15    7   33 1
    16    8    9 1
    17    9   10 1
    18   10   34 1
    19   10   35 1
    20   10   36 1
    21   11   12 ar
    22   12   13 ar
    23   12   37 1
    24   13   14 ar
    25   14   15 1
    26   15   16 1
    27   15   38 1
    28   16   21 ar
    29   16   17 ar
    30   17   18 ar
    31   17   39 1
    32   18   19 ar
    33   18   40 1
    34   19   20 ar
    35   19   22 1
    36   20   21 ar
    37   20   41 1
    38   21   42 1
    39   22   23 1
    40   23   28 ar
    41   23   24 ar
    42   24   25 ar
    43   24   43 1
    44   25   26 ar
    45   25   44 1
    46   26   27 ar
    47   26   45 1
    48   27   28 ar
    49   27   46 1
    50   28   47 1
