@<TRIPOS>MOLECULE
ZINC00601274
   66    70     0     0     0
SMALL
USER_CHARGES

@<TRIPOS>ATOM
      1 C1         -0.0173    1.4248    0.0099 C.3       1 <0>         0.0235
      2 O1          0.0021   -0.0041    0.0020 O.3       1 <0>        -0.3122
      3 C2          0.6058   -0.6071   -1.0557 C.ar      1 <0>         0.1470
      4 C3          1.1730    0.1607   -2.0624 C.ar      1 <0>        -0.2069
      5 C4          1.7865   -0.4547   -3.1363 C.ar      1 <0>        -0.0659
      6 C5          1.8352   -1.8346   -3.2086 C.ar      1 <0>        -0.1508
      7 C6          1.2702   -2.6021   -2.2068 C.ar      1 <0>        -0.0670
      8 C7          0.6609   -1.9915   -1.1277 C.ar      1 <0>        -0.1494
      9 C8          2.5046   -2.5033   -4.3815 C.3       1 <0>        -0.0928
     10 C9          3.9857   -2.7227   -4.0663 C.3       1 <0>        -0.0078
     11 N1          4.6383   -3.3746   -5.2096 N.4       1 <0>        -0.3851
     12 C10         4.0698   -4.7148   -5.3968 C.3       1 <0>        -0.0055
     13 C11         4.6882   -5.3670   -6.6352 C.3       1 <0>        -0.1571
     14 C12         6.2039   -5.4757   -6.4451 C.3       1 <0>         0.1653
     15 C13         6.7761   -4.0808   -6.1767 C.3       1 <0>        -0.1624
     16 C14         6.0803   -3.4763   -4.9553 C.3       1 <0>        -0.0018
     17 N2          6.8113   -6.0294   -7.6578 N.pl3     1 <0>        -0.7086
     18 C15         8.0180   -6.6927   -7.5834 C.2       1 <0>         0.5366
     19 N3          8.7020   -6.8894   -6.4840 N.2       1 <0>        -0.5407
     20 C16         9.8394   -7.5757   -6.7708 C.ar      1 <0>         0.0759
     21 C17        10.9029   -8.0392   -5.9923 C.ar      1 <0>        -0.0787
     22 C18        11.9400   -8.7213   -6.5881 C.ar      1 <0>        -0.1163
     23 C19        11.9371   -8.9520   -7.9558 C.ar      1 <0>        -0.1062
     24 C20        10.8945   -8.5005   -8.7384 C.ar      1 <0>        -0.1057
     25 C21         9.8416   -7.8121   -8.1552 C.ar      1 <0>         0.0482
     26 N4          8.6748   -7.2475   -8.6442 N.pl3     1 <0>        -0.5047
     27 C22         8.2299   -7.2439  -10.0400 C.3       1 <0>         0.1559
     28 C23         8.7638   -6.0175  -10.7343 C.ar      1 <0>        -0.1332
     29 C24         8.0277   -4.8473  -10.7325 C.ar      1 <0>        -0.0736
     30 C25         8.5165   -3.7219  -11.3684 C.ar      1 <0>        -0.1551
     31 C26         9.7440   -3.7666  -12.0075 C.ar      1 <0>         0.1157
     32 C27        10.4803   -4.9392  -12.0086 C.ar      1 <0>        -0.1485
     33 C28         9.9919   -6.0618  -11.3675 C.ar      1 <0>        -0.0624
     34 F1         10.2226   -2.6672  -12.6298 F         1 <0>        -0.1319
     35 H1          1.0053    1.8021    0.0021 H         1 <0>         0.0593
     36 H2         -0.5445    1.7859   -0.8732 H         1 <0>         0.0598
     37 H3         -0.5275    1.7763    0.9067 H         1 <0>         0.1079
     38 H4          1.1347    1.2385   -2.0068 H         1 <0>         0.1346
     39 H5          2.2283    0.1425   -3.9203 H         1 <0>         0.1266
     40 H6          1.3092   -3.6798   -2.2657 H         1 <0>         0.1311
     41 H7          0.2237   -2.5913   -0.3432 H         1 <0>         0.1377
     42 H8          2.0276   -3.4646   -4.5726 H         1 <0>         0.0937
     43 H9          2.4108   -1.8695   -5.2632 H         1 <0>         0.0926
     44 H10         4.4627   -1.7615   -3.8752 H         1 <0>         0.1324
     45 H11         4.0795   -3.3566   -3.1846 H         1 <0>         0.1326
     46 H12         4.2840   -5.3256   -4.5198 H         1 <0>         0.1348
     47 H13         2.9906   -4.6361   -5.5288 H         1 <0>         0.1381
     48 H14         4.2661   -6.3627   -6.7714 H         1 <0>         0.1200
     49 H15         4.4743   -4.7571   -7.5129 H         1 <0>         0.0930
     50 H16         6.4192   -6.1271   -5.5981 H         1 <0>         0.1098
     51 H17         7.8464   -4.1571   -5.9852 H         1 <0>         0.1198
     52 H18         6.6055   -3.4442   -7.0449 H         1 <0>         0.0875
     53 H19         6.4855   -2.4832   -4.7614 H         1 <0>         0.1334
     54 H20         6.2517   -4.1135   -4.0877 H         1 <0>         0.1336
     55 H21         6.3646   -5.9295   -8.5130 H         1 <0>         0.4084
     56 H22        10.9118   -7.8627   -4.9269 H         1 <0>         0.1280
     57 H23        12.7621   -9.0790   -5.9860 H         1 <0>         0.1315
     58 H24        12.7565   -9.4883   -8.4111 H         1 <0>         0.1319
     59 H25        10.8985   -8.6827   -9.8029 H         1 <0>         0.1194
     60 H26         8.6021   -8.1367  -10.5423 H         1 <0>         0.1066
     61 H27         7.1405   -7.2353  -10.0741 H         1 <0>         0.0963
     62 H28         7.0701   -4.8127  -10.2343 H         1 <0>         0.1230
     63 H29         7.9411   -2.8079  -11.3672 H         1 <0>         0.1384
     64 H30        11.4378   -4.9753  -12.5070 H         1 <0>         0.1433
     65 H31        10.5681   -6.9753  -11.3644 H         1 <0>         0.1356
     66 H32         4.4825   -2.8261   -6.0421 H         1 <0>         0.4217
@<TRIPOS>BOND
     1    1    2 1
     2    1   35 1
     3    1   36 1
     4    1   37 1
     5    2    3 1
     6    3    8 ar
     7    3    4 ar
     8    4    5 ar
     9    4   38 1
    10    5    6 ar
    11    5   39 1
    12    6    7 ar
    13    6    9 1
    14    7    8 ar
    15    7   40 1
    16    8   41 1
    17    9   10 1
    18    9   42 1
    19    9   43 1
    20   10   11 1
    21   10   44 1
    22   10   45 1
    23   11   16 1
    24   11   12 1
    25   11   66 1
    26   12   13 1
    27   12   46 1
    28   12   47 1
    29   13   14 1
    30   13   48 1
    31   13   49 1
    32   14   15 1
    33   14   17 1
    34   14   50 1
    35   15   16 1
    36   15   51 1
    37   15   52 1
    38   16   53 1
    39   16   54 1
    40   17   18 1
    41   17   55 1
    42   18   26 1
    43   18   19 2
    44   19   20 1
    45   20   25 ar
    46   20   21 ar
    47   21   22 ar
    48   21   56 1
    49   22   23 ar
    50   22   57 1
    51   23   24 ar
    52   23   58 1
    53   24   25 ar
    54   24   59 1
    55   25   26 1
    56   26   27 1
    57   27   28 1
    58   27   60 1
    59   27   61 1
    60   28   33 ar
    61   28   29 ar
    62   29   30 ar
    63   29   62 1
    64   30   31 ar
    65   30   63 1
    66   31   32 ar
    67   31   34 1
    68   32   33 ar
    69   32   64 1
    70   33   65 1
@<TRIPOS>MOLECULE
ZINC00601274
   67    71     0     0     0
SMALL
USER_CHARGES

@<TRIPOS>ATOM
      1 C1         -0.0173    1.4248    0.0099 C.3       1 <0>         0.0224
      2 O1          0.0021   -0.0041    0.0020 O.3       1 <0>        -0.3102
      3 C2          0.6058   -0.6071   -1.0557 C.ar      1 <0>         0.1527
      4 C3          1.1730    0.1607   -2.0624 C.ar      1 <0>        -0.2067
      5 C4          1.7865   -0.4547   -3.1363 C.ar      1 <0>        -0.0644
      6 C5          1.8352   -1.8346   -3.2086 C.ar      1 <0>        -0.1592
      7 C6          1.2702   -2.6021   -2.2068 C.ar      1 <0>        -0.0668
      8 C7          0.6609   -1.9915   -1.1277 C.ar      1 <0>        -0.1497
      9 C8          2.5046   -2.5033   -4.3815 C.3       1 <0>        -0.0905
     10 C9          3.9857   -2.7227   -4.0663 C.3       1 <0>        -0.0094
     11 N1          4.6383   -3.3746   -5.2096 N.4       1 <0>        -0.3874
     12 C10         4.0698   -4.7148   -5.3968 C.3       1 <0>        -0.0091
     13 C11         4.6882   -5.3670   -6.6352 C.3       1 <0>        -0.1548
     14 C12         6.2039   -5.4757   -6.4451 C.3       1 <0>         0.1296
     15 C13         6.7761   -4.0808   -6.1767 C.3       1 <0>        -0.1730
     16 C14         6.0803   -3.4763   -4.9553 C.3       1 <0>        -0.0038
     17 N2          6.8113   -6.0294   -7.6578 N.pl3     1 <0>        -0.6860
     18 C15         8.0180   -6.6927   -7.5834 C.cat     1 <0>         0.6345
     19 N3          8.7020   -6.8894   -6.4840 N.pl3     1 <0>        -0.5322
     20 C16         9.8394   -7.5757   -6.7708 C.ar      1 <0>         0.0552
     21 C17        10.9029   -8.0392   -5.9923 C.ar      1 <0>        -0.0776
     22 C18        11.9400   -8.7213   -6.5881 C.ar      1 <0>        -0.0769
     23 C19        11.9371   -8.9520   -7.9558 C.ar      1 <0>        -0.0650
     24 C20        10.8945   -8.5005   -8.7384 C.ar      1 <0>        -0.0869
     25 C21         9.8416   -7.8121   -8.1552 C.ar      1 <0>         0.0882
     26 N4          8.6748   -7.2475   -8.6442 N.pl3     1 <0>        -0.4526
     27 C22         8.2299   -7.2439  -10.0400 C.3       1 <0>         0.1501
     28 C23         8.7638   -6.0175  -10.7343 C.ar      1 <0>        -0.1610
     29 C24         8.0277   -4.8473  -10.7325 C.ar      1 <0>        -0.0724
     30 C25         8.5165   -3.7219  -11.3684 C.ar      1 <0>        -0.1535
     31 C26         9.7440   -3.7666  -12.0075 C.ar      1 <0>         0.1357
     32 C27        10.4803   -4.9392  -12.0086 C.ar      1 <0>        -0.1459
     33 C28         9.9919   -6.0618  -11.3675 C.ar      1 <0>        -0.0549
     34 F1         10.2226   -2.6672  -12.6298 F         1 <0>        -0.1219
     35 H1          1.0053    1.8021    0.0021 H         1 <0>         0.0601
     36 H2         -0.5445    1.7859   -0.8732 H         1 <0>         0.0614
     37 H3         -0.5275    1.7763    0.9067 H         1 <0>         0.1105
     38 H4          1.1347    1.2385   -2.0068 H         1 <0>         0.1365
     39 H5          2.2283    0.1425   -3.9203 H         1 <0>         0.1263
     40 H6          1.3092   -3.6798   -2.2657 H         1 <0>         0.1297
     41 H7          0.2237   -2.5913   -0.3432 H         1 <0>         0.1391
     42 H8          2.0276   -3.4646   -4.5726 H         1 <0>         0.0931
     43 H9          2.4108   -1.8695   -5.2632 H         1 <0>         0.0939
     44 H10         4.4627   -1.7615   -3.8752 H         1 <0>         0.1369
     45 H11         4.0795   -3.3566   -3.1846 H         1 <0>         0.1350
     46 H12         4.2840   -5.3256   -4.5198 H         1 <0>         0.1385
     47 H13         2.9906   -4.6361   -5.5288 H         1 <0>         0.1499
     48 H14         4.2661   -6.3627   -6.7714 H         1 <0>         0.1306
     49 H15         4.4743   -4.7571   -7.5129 H         1 <0>         0.1071
     50 H16         6.4192   -6.1271   -5.5981 H         1 <0>         0.1090
     51 H17         7.8464   -4.1571   -5.9852 H         1 <0>         0.1147
     52 H18         6.6055   -3.4442   -7.0449 H         1 <0>         0.1086
     53 H19         6.4855   -2.4832   -4.7614 H         1 <0>         0.1451
     54 H20         6.2517   -4.1135   -4.0877 H         1 <0>         0.1361
     55 H21         6.3646   -5.9295   -8.5130 H         1 <0>         0.4377
     56 H22        10.9118   -7.8627   -4.9269 H         1 <0>         0.1509
     57 H23        12.7621   -9.0790   -5.9860 H         1 <0>         0.1582
     58 H24        12.7565   -9.4883   -8.4111 H         1 <0>         0.1585
     59 H25        10.8985   -8.6827   -9.8029 H         1 <0>         0.1493
     60 H26         8.6021   -8.1367  -10.5423 H         1 <0>         0.1352
     61 H27         7.1405   -7.2353  -10.0741 H         1 <0>         0.1167
     62 H28         7.0701   -4.8127  -10.2343 H         1 <0>         0.1232
     63 H29         7.9411   -2.8079  -11.3672 H         1 <0>         0.1451
     64 H30        11.4378   -4.9753  -12.5070 H         1 <0>         0.1509
     65 H31        10.5681   -6.9753  -11.3644 H         1 <0>         0.1400
     66 H32         4.4825   -2.8261   -6.0421 H         1 <0>         0.4261
     67 H33         8.4373   -6.5905   -5.6000 H         1 <0>         0.4497
@<TRIPOS>BOND
     1    1    2 1
     2    1   35 1
     3    1   36 1
     4    1   37 1
     5    2    3 1
     6    3    8 ar
     7    3    4 ar
     8    4    5 ar
     9    4   38 1
    10    5    6 ar
    11    5   39 1
    12    6    7 ar
    13    6    9 1
    14    7    8 ar
    15    7   40 1
    16    8   41 1
    17    9   10 1
    18    9   42 1
    19    9   43 1
    20   10   11 1
    21   10   44 1
    22   10   45 1
    23   11   16 1
    24   11   12 1
    25   11   66 1
    26   12   13 1
    27   12   46 1
    28   12   47 1
    29   13   14 1
    30   13   48 1
    31   13   49 1
    32   14   15 1
    33   14   17 1
    34   14   50 1
    35   15   16 1
    36   15   51 1
    37   15   52 1
    38   16   53 1
    39   16   54 1
    40   17   18 1
    41   17   55 1
    42   18   26 1
    43   18   19 2
    44   19   20 1
    45   19   67 1
    46   20   25 ar
    47   20   21 ar
    48   21   22 ar
    49   21   56 1
    50   22   23 ar
    51   22   57 1
    52   23   24 ar
    53   23   58 1
    54   24   25 ar
    55   24   59 1
    56   25   26 1
    57   26   27 1
    58   27   28 1
    59   27   60 1
    60   27   61 1
    61   28   33 ar
    62   28   29 ar
    63   29   30 ar
    64   29   62 1
    65   30   31 ar
    66   30   63 1
    67   31   32 ar
    68   31   34 1
    69   32   33 ar
    70   32   64 1
    71   33   65 1
@<TRIPOS>MOLECULE
ZINC14952340
   78    82     0     0     0
SMALL
USER_CHARGES
[(2S)-2-aminopropyl] (2R)-6-amino-2-[[2-[2-(2-naphthyl)-1H-benzo[g]indol-3-yl]acetyl]amino]hexanoate
@<TRIPOS>ATOM
      1 C1         11.9703    6.3054    4.4928 C.3       1 <0>        -0.1857
      2 C2         11.0773    6.5354    3.2719 C.3       1 <0>         0.0432
      3 H1         11.1392    5.6725    2.6088 H         1 <0>         0.1519
      4 C3          9.6292    6.7254    3.7277 C.3       1 <0>         0.0316
      5 O1          8.7650    6.8256    2.5652 O.3       1 <0>        -0.3721
      6 C4          7.4534    6.9960    2.7938 C.2       1 <0>         0.4637
      7 O2          7.0410    7.0595    3.9277 O.2       1 <0>        -0.4695
      8 C5          6.4951    7.1082    1.6361 C.3       1 <0>         0.1578
      9 H2          6.7685    7.9648    1.0199 H         1 <0>         0.1369
     10 C6          6.5609    5.8325    0.7941 C.3       1 <0>        -0.1263
     11 C7          5.7378    6.0205   -0.4818 C.3       1 <0>        -0.1216
     12 C8          5.7205    4.7123   -1.2751 C.3       1 <0>        -0.1520
     13 C9          4.8975    4.9004   -2.5510 C.3       1 <0>        -0.0172
     14 N1          5.1332    7.2877    2.1452 N.am      1 <0>        -0.7268
     15 C10         4.2438    8.0207    1.4465 C.2       1 <0>         0.5234
     16 O3          4.5866    8.5786    0.4256 O.2       1 <0>        -0.5125
     17 C11         2.8233    8.1470    1.9337 C.3       1 <0>        -0.0706
     18 C12         2.0581    9.0674    1.0181 C.2       1 <0>        -0.1192
     19 C13         2.0492   10.4839    1.0726 C.ar      1 <0>        -0.0930
     20 C14         2.6893   11.4159    1.9164 C.ar      1 <0>        -0.0691
     21 C15         2.5049   12.7460    1.7467 C.ar      1 <0>        -0.1235
     22 C16         1.6661   13.2254    0.7184 C.ar      1 <0>        -0.0316
     23 C17         1.4677   14.6026    0.5335 C.ar      1 <0>        -0.1020
     24 C18         0.6513   15.0402   -0.4658 C.ar      1 <0>        -0.1113
     25 C19         0.0093   14.1397   -1.3112 C.ar      1 <0>        -0.1087
     26 C20         0.1796   12.7960   -1.1604 C.ar      1 <0>        -0.1166
     27 C21         1.0124   12.3106   -0.1416 C.ar      1 <0>        -0.0342
     28 C22         1.2101   10.9243    0.0429 C.ar      1 <0>         0.1024
     29 N2          0.7372    9.8127   -0.6102 N.pl3     1 <0>        -0.5561
     30 H3          0.1354    9.8186   -1.3709 H         1 <0>         0.4188
     31 C23         1.2532    8.6896   -0.0069 C.2       1 <0>         0.1026
     32 C24         0.9799    7.2950   -0.4138 C.ar      1 <0>        -0.0302
     33 C25         2.0424    6.3810   -0.5297 C.ar      1 <0>        -0.0971
     34 C26         1.8169    5.0951   -0.9012 C.ar      1 <0>        -0.1253
     35 C27         0.5070    4.6612   -1.1759 C.ar      1 <0>        -0.0449
     36 C28         0.2488    3.3352   -1.5616 C.ar      1 <0>        -0.1253
     37 C29        -1.0292    2.9443   -1.8205 C.ar      1 <0>        -0.0958
     38 C30        -2.0900    3.8420   -1.7147 C.ar      1 <0>        -0.1105
     39 C31        -1.8797    5.1328   -1.3383 C.ar      1 <0>        -0.0965
     40 C32        -0.5728    5.5733   -1.0626 C.ar      1 <0>        -0.0488
     41 C33        -0.3203    6.8986   -0.6773 C.ar      1 <0>        -0.0734
     42 H4         11.6367    5.4140    5.0242 H         1 <0>         0.1127
     43 H5         13.0019    6.1700    4.1681 H         1 <0>         0.0973
     44 H6         11.9084    7.1682    5.1560 H         1 <0>         0.0888
     45 H7          9.5510    7.6383    4.3183 H         1 <0>         0.1011
     46 H8          9.3245    5.8729    4.3347 H         1 <0>         0.1207
     47 H9          7.5978    5.6243    0.5302 H         1 <0>         0.0895
     48 H10         6.1572    4.9977    1.3672 H         1 <0>         0.0815
     49 H11         4.7175    6.2991   -0.2183 H         1 <0>         0.0827
     50 H12         6.1840    6.8079   -1.0893 H         1 <0>         0.0858
     51 H13         6.7408    4.4337   -1.5386 H         1 <0>         0.0903
     52 H14         5.2743    3.9249   -0.6676 H         1 <0>         0.0896
     53 H15         3.8771    5.1790   -2.2875 H         1 <0>         0.1362
     54 H16         5.3437    5.6878   -3.1585 H         1 <0>         0.1365
     55 H17         4.5311    2.8842   -2.7488 H         1 <0>         0.4367
     56 H18         4.3431    3.7428   -4.1607 H         1 <0>         0.4438
     57 H19         4.8716    6.8791    2.9851 H         1 <0>         0.4149
     58 H20         2.8208    8.5555    2.9443 H         1 <0>         0.1094
     59 H21         2.3519    7.1643    1.9378 H         1 <0>         0.1057
     60 H22         3.3348   11.0637    2.7074 H         1 <0>         0.1168
     61 H23         3.0032   13.4448    2.4023 H         1 <0>         0.1291
     62 H24         1.9594   15.3128    1.1817 H         1 <0>         0.1319
     63 H25         0.5005   16.1006   -0.6042 H         1 <0>         0.1282
     64 H26        -0.6325   14.5108   -2.0965 H         1 <0>         0.1265
     65 H27        -0.3247   12.1078   -1.8225 H         1 <0>         0.1171
     66 H28         3.0507    6.7065   -0.3209 H         1 <0>         0.1265
     67 H29         2.6432    4.4048   -0.9859 H         1 <0>         0.1162
     68 H30         1.0609    2.6290   -1.6526 H         1 <0>         0.1223
     69 H31        -1.2236    1.9240   -2.1167 H         1 <0>         0.1290
     70 H32        -3.0940    3.5072   -1.9301 H         1 <0>         0.1320
     71 H33        -2.7117    5.8165   -1.2560 H         1 <0>         0.1338
     72 H34        -1.1333    7.6038   -0.5874 H         1 <0>         0.1326
     73 H35        11.4789    8.5509    3.1497 H         1 <0>         0.4378
     74 H36        12.4583    7.6113    2.1886 H         1 <0>         0.4435
     75 N3          4.9056    3.6419   -3.3174 N.4       1 <0>        -0.6476
     76 H37         5.8710    3.4152   -3.5838 H         1 <0>         0.4399
     77 N4         11.5096    7.7374    2.5373 N.4       1 <0>        -0.6472
     78 H38        10.8783    7.8924    1.7425 H         1 <0>         0.4435
@<TRIPOS>BOND
     1    1    2 1
     2    1   42 1
     3    1   43 1
     4    1   44 1
     5    2    3 1
     6    2    4 1
     7    2   77 1
     8    4    5 1
     9    4   45 1
    10    4   46 1
    11    5    6 1
    12    6    7 2
    13    6    8 1
    14    8    9 1
    15    8   10 1
    16    8   14 1
    17   10   11 1
    18   10   47 1
    19   10   48 1
    20   11   12 1
    21   11   49 1
    22   11   50 1
    23   12   13 1
    24   12   51 1
    25   12   52 1
    26   13   53 1
    27   13   54 1
    28   13   75 1
    29   14   15 am
    30   14   57 1
    31   15   16 2
    32   15   17 1
    33   17   18 1
    34   17   58 1
    35   17   59 1
    36   18   31 2
    37   18   19 1
    38   19   28 ar
    39   19   20 ar
    40   20   21 ar
    41   20   60 1
    42   21   22 ar
    43   21   61 1
    44   22   27 ar
    45   22   23 ar
    46   23   24 ar
    47   23   62 1
    48   24   25 ar
    49   24   63 1
    50   25   26 ar
    51   25   64 1
    52   26   27 ar
    53   26   65 1
    54   27   28 ar
    55   28   29 1
    56   29   30 1
    57   29   31 1
    58   31   32 1
    59   32   41 ar
    60   32   33 ar
    61   33   34 ar
    62   33   66 1
    63   34   35 ar
    64   34   67 1
    65   35   40 ar
    66   35   36 ar
    67   36   37 ar
    68   36   68 1
    69   37   38 ar
    70   37   69 1
    71   38   39 ar
    72   38   70 1
    73   39   40 ar
    74   39   71 1
    75   40   41 ar
    76   41   72 1
    77   55   75 1
    78   56   75 1
    79   73   77 1
    80   74   77 1
    81   75   76 1
    82   77   78 1
