@<TRIPOS>MOLECULE
ZINC05932684
   50    53     0     0     0
SMALL
USER_CHARGES
3-[3-[[(2S)-2,3-dihydroxypropyl]amino]phenyl]-4-(5-fluoro-1-methyl-indol-3-yl)pyrrole-2,5-dione
@<TRIPOS>ATOM
      1 C1          1.8520    4.5431    0.0093 C.3       1 <0>         0.0726
      2 N1          0.8716    3.4545    0.0123 N.pl3     1 <0>        -0.4693
      3 C2         -0.4742    3.6256    0.0261 C.2       1 <0>         0.1108
      4 C3         -1.0941    2.3952    0.0195 C.2       1 <0>        -0.1478
      5 C4         -0.0168    1.3885    0.0097 C.ar      1 <0>        -0.0457
      6 C5          1.1878    2.1100    0.0020 C.ar      1 <0>         0.0816
      7 C6          2.3956    1.4207   -0.0137 C.ar      1 <0>        -0.0897
      8 C7          2.4023    0.0424   -0.0211 C.ar      1 <0>        -0.1331
      9 C8          1.2107   -0.6707   -0.0131 C.ar      1 <0>         0.0833
     10 C9          0.0021   -0.0041    0.0020 C.ar      1 <0>        -0.1096
     11 F1          1.2344   -2.0214   -0.0206 F         1 <0>        -0.1388
     12 C10        -2.5397    2.1376    0.0230 C.2       1 <0>        -0.0174
     13 C11        -3.4166    2.2800   -1.0445 C.2       1 <0>        -0.0749
     14 C12        -4.7473    1.9011   -0.5367 C.2       1 <0>         0.5603
     15 O1         -5.7765    1.8987   -1.1830 O.2       1 <0>        -0.4467
     16 N2         -4.6360    1.5589    0.7576 N.am      1 <0>        -0.6894
     17 C13        -3.3599    1.6660    1.1659 C.2       1 <0>         0.5550
     18 O2         -2.9485    1.4209    2.2815 O.2       1 <0>        -0.4424
     19 C14        -3.0827    2.7229   -2.4137 C.ar      1 <0>         0.0137
     20 C15        -2.6250    4.0243   -2.6378 C.ar      1 <0>        -0.1476
     21 C16        -2.3089    4.4333   -3.9167 C.ar      1 <0>        -0.0706
     22 C17        -2.4532    3.5632   -4.9818 C.ar      1 <0>        -0.1871
     23 C18        -2.9132    2.2681   -4.7706 C.ar      1 <0>         0.2196
     24 C19        -3.2287    1.8450   -3.4888 C.ar      1 <0>        -0.1595
     25 N3         -3.0580    1.3936   -5.8502 N.pl3     1 <0>        -0.7407
     26 C20        -2.7246    1.8408   -7.2049 C.3       1 <0>         0.0967
     27 C21        -2.9706    0.6995   -8.1937 C.3       1 <0>         0.0964
     28 H1         -4.0196    0.4058   -8.1559 H         1 <0>         0.1125
     29 C22        -2.6224    1.1665   -9.6085 C.3       1 <0>         0.0474
     30 O3         -2.9614    0.1420  -10.5452 O.3       1 <0>        -0.5627
     31 O4         -2.1503   -0.4176   -7.8455 O.3       1 <0>        -0.5474
     32 H2          2.0857    4.8187   -1.0191 H         1 <0>         0.0769
     33 H3          1.4386    5.4058    0.5316 H         1 <0>         0.0888
     34 H4          2.7611    4.2147    0.5130 H         1 <0>         0.0861
     35 H5         -0.9814    4.5791    0.0355 H         1 <0>         0.1794
     36 H6          3.3282    1.9653   -0.0204 H         1 <0>         0.1325
     37 H7          3.3430   -0.4880   -0.0330 H         1 <0>         0.1410
     38 H8         -0.9241   -0.5595    0.0075 H         1 <0>         0.1323
     39 H9         -5.3732    1.2709    1.3184 H         1 <0>         0.4305
     40 H10        -2.5152    4.7084   -1.8094 H         1 <0>         0.1196
     41 H11        -1.9514    5.4381   -4.0874 H         1 <0>         0.1254
     42 H12        -2.2080    3.8907   -5.9813 H         1 <0>         0.1211
     43 H13        -3.5865    0.8396   -3.3228 H         1 <0>         0.1231
     44 H14        -3.3792    0.4903   -5.7030 H         1 <0>         0.4066
     45 H15        -3.3503    2.6929   -7.4705 H         1 <0>         0.0722
     46 H16        -1.6756    2.1345   -7.2427 H         1 <0>         0.0652
     47 H17        -3.1838    2.0715   -9.8408 H         1 <0>         0.0584
     48 H18        -1.5544    1.3757   -9.6695 H         1 <0>         0.0524
     49 H19        -2.7674    0.3699  -11.4648 H         1 <0>         0.3833
     50 H20        -1.2021   -0.2285   -7.8583 H         1 <0>         0.3759
@<TRIPOS>BOND
     1    1    2 1
     2    1   32 1
     3    1   33 1
     4    1   34 1
     5    2    6 1
     6    2    3 1
     7    3    4 2
     8    3   35 1
     9    4    5 1
    10    4   12 1
    11    5   10 ar
    12    5    6 ar
    13    6    7 ar
    14    7    8 ar
    15    7   36 1
    16    8    9 ar
    17    8   37 1
    18    9   10 ar
    19    9   11 1
    20   10   38 1
    21   12   17 1
    22   12   13 2
    23   13   14 1
    24   13   19 1
    25   14   15 2
    26   14   16 am
    27   16   17 am
    28   16   39 1
    29   17   18 2
    30   19   24 ar
    31   19   20 ar
    32   20   21 ar
    33   20   40 1
    34   21   22 ar
    35   21   41 1
    36   22   23 ar
    37   22   42 1
    38   23   24 ar
    39   23   25 1
    40   24   43 1
    41   25   26 1
    42   25   44 1
    43   26   27 1
    44   26   45 1
    45   26   46 1
    46   27   28 1
    47   27   29 1
    48   27   31 1
    49   29   30 1
    50   29   47 1
    51   29   48 1
    52   30   49 1
    53   31   50 1
@<TRIPOS>MOLECULE
ZINC12501080
   50    53     0     0     0
SMALL
USER_CHARGES
3-[3-[[(2R)-2,3-dihydroxypropyl]amino]phenyl]-4-(5-fluoro-1-methyl-indol-3-yl)pyrrole-2,5-dione
@<TRIPOS>ATOM
      1 C1          7.9960    8.6641    5.2309 C.3       1 <0>         0.0725
      2 N1          6.7497    9.1520    4.6353 N.pl3     1 <0>        -0.4693
      3 C2          6.6022    9.5111    3.3353 C.2       1 <0>         0.1109
      4 C3          5.3062    9.9245    3.1168 C.2       1 <0>        -0.1479
      5 C4          4.6061    9.7932    4.4078 C.ar      1 <0>        -0.0456
      6 C5          5.5586    9.3064    5.3175 C.ar      1 <0>         0.0816
      7 C6          5.1867    9.0788    6.6381 C.ar      1 <0>        -0.0896
      8 C7          3.8932    9.3299    7.0426 C.ar      1 <0>        -0.1332
      9 C8          2.9516    9.8113    6.1425 C.ar      1 <0>         0.0831
     10 C9          3.3022   10.0438    4.8279 C.ar      1 <0>        -0.1098
     11 F1          1.6878   10.0524    6.5549 F         1 <0>        -0.1389
     12 C10         4.7345   10.3959    1.8492 C.2       1 <0>        -0.0174
     13 C11         4.3897    9.6221    0.7487 C.2       1 <0>        -0.0750
     14 C12         3.8564   10.5555   -0.2594 C.2       1 <0>         0.5602
     15 O1          3.4446   10.2476   -1.3606 O.2       1 <0>        -0.4463
     16 N2          3.8999   11.8025    0.2386 N.am      1 <0>        -0.6894
     17 C13         4.4103   11.7964    1.4819 C.2       1 <0>         0.5551
     18 O2          4.5743   12.7713    2.1867 O.2       1 <0>        -0.4425
     19 C14         4.5245    8.1568    0.6175 C.ar      1 <0>         0.0137
     20 C15         5.7914    7.5666    0.6147 C.ar      1 <0>        -0.1477
     21 C16         5.9142    6.1981    0.4924 C.ar      1 <0>        -0.0706
     22 C17         4.7870    5.4053    0.3777 C.ar      1 <0>        -0.1870
     23 C18         3.5222    5.9828    0.3740 C.ar      1 <0>         0.2196
     24 C19         3.3872    7.3570    0.4963 C.ar      1 <0>        -0.1595
     25 N3          2.3871    5.1776    0.2529 N.pl3     1 <0>        -0.7410
     26 C20         2.5297    3.7253    0.1236 C.3       1 <0>         0.0972
     27 C21         1.1449    3.0852    0.0077 C.3       1 <0>         0.0964
     28 H1          0.5324    3.3879    0.8570 H         1 <0>         0.1122
     29 C22         1.2864    1.5618   -0.0018 C.3       1 <0>         0.0474
     30 O3         -0.0110    0.9628    0.0073 O.3       1 <0>        -0.5628
     31 O4          0.5223    3.5133   -1.2052 O.3       1 <0>        -0.5475
     32 H2          8.0425    7.5790    5.1383 H         1 <0>         0.0768
     33 H3          8.8452    9.1096    4.7126 H         1 <0>         0.0889
     34 H4          8.0278    8.9405    6.2848 H         1 <0>         0.0863
     35 H5          7.3811    9.4801    2.5878 H         1 <0>         0.1794
     36 H6          5.9110    8.7045    7.3464 H         1 <0>         0.1325
     37 H7          3.6094    9.1511    8.0692 H         1 <0>         0.1410
     38 H8          2.5690   10.4178    4.1286 H         1 <0>         0.1323
     39 H9          3.6042   12.5966   -0.2335 H         1 <0>         0.4306
     40 H10         6.6741    8.1818    0.7086 H         1 <0>         0.1196
     41 H11         6.8941    5.7438    0.4905 H         1 <0>         0.1255
     42 H12         4.8896    4.3340    0.2864 H         1 <0>         0.1211
     43 H13         2.4055    7.8070    0.4981 H         1 <0>         0.1231
     44 H14         1.5046    5.5800    0.2544 H         1 <0>         0.4060
     45 H15         3.0400    3.3307    1.0023 H         1 <0>         0.0714
     46 H16         3.1121    3.4953   -0.7686 H         1 <0>         0.0663
     47 H17         1.8401    1.2428    0.8812 H         1 <0>         0.0582
     48 H18         1.8231    1.2523   -0.8987 H         1 <0>         0.0528
     49 H19         0.0021   -0.0041    0.0020 H         1 <0>         0.3833
     50 H20         1.0134    3.2774   -2.0040 H         1 <0>         0.3762
@<TRIPOS>BOND
     1    1    2 1
     2    1   32 1
     3    1   33 1
     4    1   34 1
     5    2    6 1
     6    2    3 1
     7    3    4 2
     8    3   35 1
     9    4    5 1
    10    4   12 1
    11    5   10 ar
    12    5    6 ar
    13    6    7 ar
    14    7    8 ar
    15    7   36 1
    16    8    9 ar
    17    8   37 1
    18    9   10 ar
    19    9   11 1
    20   10   38 1
    21   12   17 1
    22   12   13 2
    23   13   14 1
    24   13   19 1
    25   14   15 2
    26   14   16 am
    27   16   17 am
    28   16   39 1
    29   17   18 2
    30   19   24 ar
    31   19   20 ar
    32   20   21 ar
    33   20   40 1
    34   21   22 ar
    35   21   41 1
    36   22   23 ar
    37   22   42 1
    38   23   24 ar
    39   23   25 1
    40   24   43 1
    41   25   26 1
    42   25   44 1
    43   26   27 1
    44   26   45 1
    45   26   46 1
    46   27   28 1
    47   27   29 1
    48   27   31 1
    49   29   30 1
    50   29   47 1
    51   29   48 1
    52   30   49 1
    53   31   50 1
@<TRIPOS>MOLECULE
ZINC03814434
   62    69     0     0     0
SMALL
USER_CHARGES

@<TRIPOS>ATOM
      1 C1         -0.1295    1.5952   -0.2973 C.3       1 <0>        -0.1687
      2 C2         -0.0862    0.0696   -0.1900 C.3       1 <0>         0.3342
      3 C3          0.5692   -0.4501   -1.4637 C.3       1 <0>         0.0405
      4 H1          1.4796    0.1159   -1.6612 H         1 <0>         0.1372
      5 C4          0.9167   -1.9328   -1.2889 C.3       1 <0>        -0.0061
      6 H2          1.3963   -2.3075   -2.1932 H         1 <0>         0.1555
      7 C5          1.8785   -2.0596   -0.1021 C.3       1 <0>        -0.1827
      8 C6          1.2061   -1.5198    1.1541 C.3       1 <0>         0.2999
      9 H3          1.9797   -1.4243    1.9161 H         1 <0>         0.1550
     10 O1          0.6555   -0.2442    0.9666 O.3       1 <0>        -0.3234
     11 N1          0.2189   -2.4746    1.6600 N.pl3     1 <0>        -0.5366
     12 C7          0.4705   -3.5508    2.4739 C.ar      1 <0>         0.1469
     13 C8          1.6649   -4.0152    3.0240 C.ar      1 <0>        -0.1522
     14 C9          1.5948   -5.1456    3.8201 C.ar      1 <0>        -0.0582
     15 C10         0.4006   -5.7997    4.0696 C.ar      1 <0>        -0.1457
     16 C11        -0.7984   -5.3597    3.5358 C.ar      1 <0>        -0.0280
     17 C12        -0.7487   -4.2198    2.7307 C.ar      1 <0>        -0.1131
     18 C13        -1.7893   -3.4830    2.0197 C.ar      1 <0>         0.0276
     19 C14        -1.1442   -2.4197    1.3841 C.ar      1 <0>         0.0376
     20 C15        -1.8806   -1.5095    0.6175 C.ar      1 <0>         0.0894
     21 N2         -1.4718   -0.3951   -0.1095 N.pl3     1 <0>        -0.5183
     22 C16        -2.5611    0.1913   -0.7090 C.ar      1 <0>         0.1618
     23 C17        -2.6521    1.3277   -1.5118 C.ar      1 <0>        -0.1305
     24 C18        -3.9109    1.6745   -1.9733 C.ar      1 <0>        -0.0737
     25 C19        -5.0393    0.9368   -1.6616 C.ar      1 <0>        -0.1358
     26 C20        -4.9745   -0.1955   -0.8662 C.ar      1 <0>        -0.0503
     27 C21        -3.7147   -0.5596   -0.3919 C.ar      1 <0>        -0.1042
     28 C22        -3.2693   -1.6660    0.4845 C.ar      1 <0>        -0.0360
     29 C23        -3.9084   -2.7313    1.1102 C.ar      1 <0>        -0.0288
     30 C24        -3.1873   -3.6421    1.8754 C.ar      1 <0>        -0.1255
     31 C25        -4.1221   -4.6480    2.4030 C.2       1 <0>         0.5632
     32 O2         -3.8062   -5.5851    3.1110 O.2       1 <0>        -0.5106
     33 N3         -5.3744   -4.3851    1.9926 N.am      1 <0>        -0.7162
     34 C26        -5.3495   -3.1771    1.1601 C.3       1 <0>         0.1358
     35 N4         -0.3067   -2.7008   -1.0216 N.4       1 <0>        -0.5252
     36 C27         0.0145   -4.1336   -0.9773 C.3       1 <0>        -0.0497
     37 O3         -0.3340   -0.2979   -2.5607 O.3       1 <0>        -0.3614
     38 C28         0.3101   -0.0933   -3.8198 C.3       1 <0>         0.0162
     39 H4          0.8261    2.0094    0.0240 H         1 <0>         0.0984
     40 H5         -0.3202    1.8814   -1.3317 H         1 <0>         0.1036
     41 H6         -0.9255    1.9818    0.3392 H         1 <0>         0.0921
     42 H7          2.1370   -3.1081    0.0458 H         1 <0>         0.1233
     43 H8          2.7835   -1.4869   -0.3048 H         1 <0>         0.1455
     44 H9          2.6036   -3.5149    2.8368 H         1 <0>         0.1365
     45 H10         2.5026   -5.5304    4.2610 H         1 <0>         0.1359
     46 H11         0.4045   -6.6780    4.6980 H         1 <0>         0.1352
     47 H12        -1.7278   -5.8736    3.7323 H         1 <0>         0.1600
     48 H13        -1.7792    1.9122   -1.7624 H         1 <0>         0.1440
     49 H14        -4.0153    2.5500   -2.5970 H         1 <0>         0.1336
     50 H15        -5.9967    1.2527   -2.0488 H         1 <0>         0.1332
     51 H16        -5.8575   -0.7687   -0.6249 H         1 <0>         0.1415
     52 H17        -6.1628   -4.9065    2.2103 H         1 <0>         0.4348
     53 H18        -5.9671   -2.3994    1.6094 H         1 <0>         0.1115
     54 H19        -5.7060   -3.4063    0.1559 H         1 <0>         0.1103
     55 H20        -0.6958   -2.4158   -0.1353 H         1 <0>         0.4186
     56 H21         0.4349   -4.4415   -1.9347 H         1 <0>         0.1256
     57 H22         0.7403   -4.3189   -0.1854 H         1 <0>         0.1191
     58 H23        -0.8932   -4.7035   -0.7789 H         1 <0>         0.1256
     59 H24         0.9168    0.8112   -3.7748 H         1 <0>         0.0633
     60 H25         0.9482   -0.9479   -4.0446 H         1 <0>         0.0514
     61 H26        -0.4433    0.0130   -4.6003 H         1 <0>         0.1100
     62 H27        -0.9785   -2.5293   -1.7546 H         1 <0>         0.4274
@<TRIPOS>BOND
     1    1    2 1
     2    1   39 1
     3    1   40 1
     4    1   41 1
     5    2   10 1
     6    2   21 1
     7    2    3 1
     8    3    4 1
     9    3    5 1
    10    3   37 1
    11    5    6 1
    12    5    7 1
    13    5   35 1
    14    7    8 1
    15    7   42 1
    16    7   43 1
    17    8    9 1
    18    8   10 1
    19    8   11 1
    20   11   19 1
    21   11   12 1
    22   12   17 ar
    23   12   13 ar
    24   13   14 ar
    25   13   44 1
    26   14   15 ar
    27   14   45 1
    28   15   16 ar
    29   15   46 1
    30   16   17 ar
    31   16   47 1
    32   17   18 1
    33   18   30 ar
    34   18   19 ar
    35   19   20 ar
    36   20   28 ar
    37   20   21 1
    38   21   22 1
    39   22   27 ar
    40   22   23 ar
    41   23   24 ar
    42   23   48 1
    43   24   25 ar
    44   24   49 1
    45   25   26 ar
    46   25   50 1
    47   26   27 ar
    48   26   51 1
    49   27   28 1
    50   28   29 ar
    51   29   34 1
    52   29   30 ar
    53   30   31 1
    54   31   32 2
    55   31   33 am
    56   33   34 1
    57   33   52 1
    58   34   53 1
    59   34   54 1
    60   35   36 1
    61   35   55 1
    62   35   62 1
    63   36   56 1
    64   36   57 1
    65   36   58 1
    66   37   38 1
    67   38   59 1
    68   38   60 1
    69   38   61 1
@<TRIPOS>MOLECULE
ZINC03938688
   39    41     0     0     0
SMALL
USER_CHARGES

@<TRIPOS>ATOM
      1 C1         -0.0095    1.3826    0.0704 C.ar      1 <0>        -0.0343
      2 C2          0.5587    1.0580   -1.1482 C.ar      1 <0>        -0.1609
      3 C3          1.7655    0.3862   -1.1955 C.ar      1 <0>         0.1753
      4 C4          2.4129    0.0342   -0.0053 C.ar      1 <0>        -0.1954
      5 C5          1.8304    0.3669    1.2233 C.ar      1 <0>         0.1741
      6 C6          0.6231    1.0388    1.2514 C.ar      1 <0>        -0.1610
      7 F1          2.4463    0.0317    2.3781 F         1 <0>        -0.1212
      8 C7          3.6999   -0.6827   -0.0456 C.2       1 <0>         0.6210
      9 O1          4.7383   -0.0615   -0.1600 O.2       1 <0>        -0.4669
     10 N1          3.7255   -2.0272    0.0446 N.am      1 <0>        -0.3962
     11 C8          4.8314   -2.8210    0.1249 C.2       1 <0>         0.5948
     12 N2          4.4249   -4.0694    0.1979 N.2       1 <0>        -0.5873
     13 C9          3.0869   -4.1118    0.1675 C.2       1 <0>         0.5191
     14 N3          2.6183   -2.8904    0.0808 N.2       1 <0>        -0.3480
     15 N4          2.3148   -5.2702    0.2247 N.pl3     1 <0>        -0.6226
     16 C10         2.9267   -6.5079    0.4407 C.ar      1 <0>         0.2365
     17 C11         4.1432   -6.5760    1.1080 C.ar      1 <0>        -0.1584
     18 C12         4.7450   -7.8008    1.3202 C.ar      1 <0>         0.0098
     19 C13         4.1379   -8.9586    0.8692 C.ar      1 <0>        -0.7033
     20 C14         2.9269   -8.8944    0.2046 C.ar      1 <0>         0.0112
     21 C15         2.3170   -7.6734   -0.0063 C.ar      1 <0>        -0.1777
     22 S1          4.9094  -10.5191    1.1415 S.o2      1 <0>         2.7034
     23 O2          4.4084  -11.3993    0.1448 O.2       1 <0>        -0.9656
     24 O3          6.2977  -10.2630    1.3036 O.2       1 <0>        -0.9650
     25 N5          4.3605  -11.0895    2.5960 N.pl3     1 <0>        -1.2510
     26 N6          6.1422   -2.3912    0.1281 N.pl3     1 <0>        -0.7911
     27 F2          2.3185    0.0697   -2.3868 F         1 <0>        -0.1201
     28 H1         -0.9506    1.9116    0.0998 H         1 <0>         0.1546
     29 H2          0.0576    1.3300   -2.0654 H         1 <0>         0.1549
     30 H3          0.1721    1.2963    2.1984 H         1 <0>         0.1546
     31 H4          1.3525   -5.2176    0.1147 H         1 <0>         0.4325
     32 H5          4.6180   -5.6722    1.4601 H         1 <0>         0.1556
     33 H6          5.6909   -7.8544    1.8385 H         1 <0>         0.1456
     34 H7          2.4556   -9.8005   -0.1466 H         1 <0>         0.1475
     35 H8          1.3691   -7.6243   -0.5215 H         1 <0>         0.1387
     36 H9          3.7284  -10.5673    3.1145 H         1 <0>         0.4165
     37 H10         4.6709  -11.9458    2.9296 H         1 <0>         0.4206
     38 H11         6.3422   -1.4439    0.0694 H         1 <0>         0.4292
     39 H12         6.8640   -3.0364    0.1890 H         1 <0>         0.4303
@<TRIPOS>BOND
     1    1    6 ar
     2    1    2 ar
     3    1   28 1
     4    2    3 ar
     5    2   29 1
     6    3    4 ar
     7    3   27 1
     8    4    5 ar
     9    4    8 1
    10    5    6 ar
    11    5    7 1
    12    6   30 1
    13    8    9 2
    14    8   10 am
    15   10   14 1
    16   10   11 1
    17   11   12 2
    18   11   26 1
    19   12   13 1
    20   13   14 2
    21   13   15 1
    22   15   16 1
    23   15   31 1
    24   16   21 ar
    25   16   17 ar
    26   17   18 ar
    27   17   32 1
    28   18   19 ar
    29   18   33 1
    30   19   20 ar
    31   19   22 1
    32   20   21 ar
    33   20   34 1
    34   21   35 1
    35   22   23 2
    36   22   24 2
    37   22   25 1
    38   25   36 1
    39   25   37 1
    40   26   38 1
    41   26   39 1
@<TRIPOS>MOLECULE
ZINC11617039
   55    58     0     0     0
SMALL
USER_CHARGES

@<TRIPOS>ATOM
      1 H1          0.2120    6.2074    3.3921 H         1 <0>         0.1353
      2 C1         -0.6814    5.6062    3.3098 C.ar      1 <0>         0.0196
      3 C2         -1.0741    5.1311    2.1031 C.ar      1 <0>        -0.1998
      4 C3         -2.2288    4.3474    1.9606 C.ar      1 <0>         0.2426
      5 C4         -3.0111    4.0257    3.0293 C.ar      1 <0>        -0.1858
      6 C5         -2.6578    4.4884    4.3143 C.ar      1 <0>         0.1374
      7 C6         -1.4433    5.3059    4.4600 C.ar      1 <0>        -0.2352
      8 C7         -1.3367    5.6110    5.8041 C.2       1 <0>         0.1330
      9 N1         -2.3705    5.0424    6.4391 N.pl3     1 <0>        -0.3190
     10 N2         -3.1795    4.3626    5.5213 N.2       1 <0>        -0.3200
     11 C8         -2.6225    5.1281    7.8797 C.3       1 <0>         0.0831
     12 H2         -3.2434    5.9992    8.0888 H         1 <0>         0.0888
     13 H3         -3.1369    4.2268    8.2129 H         1 <0>         0.0992
     14 H4         -1.6744    5.2222    8.4094 H         1 <0>         0.0983
     15 C9         -0.2495    6.4365    6.4425 C.3       1 <0>        -0.1025
     16 H5         -0.5455    7.4855    6.4477 H         1 <0>         0.0927
     17 H6         -0.0907    6.0987    7.4666 H         1 <0>         0.0807
     18 H7          0.6740    6.3223    5.8749 H         1 <0>         0.0943
     19 H8         -3.8955    3.4210    2.8932 H         1 <0>         0.1075
     20 N3         -2.5862    3.8853    0.6908 N.pl3     1 <0>        -0.5925
     21 C10        -3.6562    3.0160    0.5454 C.ar      1 <0>         0.5430
     22 C11        -3.4766    1.6392    0.6984 C.ar      1 <0>        -0.2193
     23 C12        -4.5711    0.8111    0.5450 C.ar      1 <0>         0.2156
     24 N4         -5.7510    1.3422    0.2594 N.ar      1 <0>        -0.5411
     25 C13        -5.8925    2.6520    0.1199 C.ar      1 <0>         0.6254
     26 N5         -4.8692    3.4808    0.2639 N.ar      1 <0>        -0.5160
     27 N6         -7.1427    3.1682   -0.1788 N.pl3     1 <0>        -0.6061
     28 C14        -7.2911    4.5338   -0.4396 C.ar      1 <0>         0.0902
     29 C15        -6.2697    5.2382   -1.0645 C.ar      1 <0>        -0.0370
     30 C16        -6.4197    6.5867   -1.3210 C.ar      1 <0>        -0.1186
     31 C17        -7.5850    7.2362   -0.9562 C.ar      1 <0>         0.0334
     32 C18        -8.6034    6.5381   -0.3338 C.ar      1 <0>        -0.6606
     33 C19        -8.4623    5.1877   -0.0798 C.ar      1 <0>        -0.0140
     34 S1        -10.0857    7.3705    0.1294 S.o2      1 <0>         2.7024
     35 O1        -10.5091    8.1093   -1.0082 O.2       1 <0>        -0.9461
     36 O2        -10.9137    6.4040    0.7615 O.2       1 <0>        -0.9598
     37 N7         -9.6818    8.4799    1.2907 N.pl3     1 <0>        -1.2481
     38 C20        -7.7450    8.7080   -1.2374 C.3       1 <0>        -0.1567
     39 H9         -8.1929    8.8433   -2.2218 H         1 <0>         0.1090
     40 H10        -8.3897    9.1545   -0.4804 H         1 <0>         0.0769
     41 H11        -6.7680    9.1908   -1.2132 H         1 <0>         0.0924
     42 H12        -4.4665   -0.2581    0.6563 H         1 <0>         0.2280
     43 H13        -2.5039    1.2316    0.9310 H         1 <0>         0.1988
     44 C21        -1.8301    4.3196   -0.4864 C.3       1 <0>         0.0917
     45 H14        -1.0078    3.6271   -0.6659 H         1 <0>         0.0746
     46 H15        -2.4881    4.3354   -1.3553 H         1 <0>         0.0729
     47 H16        -1.4320    5.3196   -0.3140 H         1 <0>         0.0953
     48 H17        -0.4834    5.3620    1.2289 H         1 <0>         0.1346
     49 H18        -7.9152    2.5823   -0.2071 H         1 <0>         0.4391
     50 H19        -5.3592    4.7318   -1.3490 H         1 <0>         0.1427
     51 H20        -5.6260    7.1349   -1.8068 H         1 <0>         0.1482
     52 H21        -9.2599    4.6421    0.4024 H         1 <0>         0.1564
     53 H22        -8.7604    8.5635    1.5820 H         1 <0>         0.4174
     54 H23       -10.3667    9.0460    1.6797 H         1 <0>         0.4270
     55 H24        -6.5221    0.7638    0.1506 H         1 <0>         0.4504
@<TRIPOS>BOND
     1    1    2 1
     2    2    7 ar
     3    2    3 ar
     4    3    4 ar
     5    3   48 1
     6    4    5 ar
     7    4   20 1
     8    5    6 ar
     9    5   19 1
    10    6   10 2
    11    6    7 ar
    12    7    8 2
    13    8    9 1
    14    8   15 1
    15    9   10 1
    16    9   11 1
    17   11   12 1
    18   11   13 1
    19   11   14 1
    20   15   16 1
    21   15   17 1
    22   15   18 1
    23   20   21 1
    24   20   44 1
    25   21   26 ar
    26   21   22 ar
    27   22   23 ar
    28   22   43 1
    29   23   24 ar
    30   23   42 1
    31   24   25 ar
    32   24   55 1
    33   25   26 ar
    34   25   27 1
    35   27   28 1
    36   27   49 1
    37   28   33 ar
    38   28   29 ar
    39   29   30 ar
    40   29   50 1
    41   30   31 ar
    42   30   51 1
    43   31   32 ar
    44   31   38 1
    45   32   33 ar
    46   32   34 1
    47   33   52 1
    48   34   35 2
    49   34   36 2
    50   34   37 1
    51   37   53 1
    52   37   54 1
    53   38   39 1
    54   38   40 1
    55   38   41 1
    56   44   45 1
    57   44   46 1
    58   44   47 1
@<TRIPOS>MOLECULE
ZINC40847911
   39    42     0     0     0
SMALL
USER_CHARGES

@<TRIPOS>ATOM
      1 C1         -0.0167    1.3789    0.0096 C.ar      1 <0>        -0.1764
      2 C2          1.1808    2.0727    0.0019 C.ar      1 <0>        -0.0118
      3 C3          2.3727    1.3386   -0.0134 C.ar      1 <0>        -0.1898
      4 C4          2.3057   -0.0555   -0.0203 C.ar      1 <0>         0.1364
      5 N1          1.1412   -0.6699   -0.0124 N.ar      1 <0>        -0.4848
      6 C5          0.0021   -0.0041    0.0020 C.ar      1 <0>         0.1274
      7 C6          3.6801    2.0283   -0.0227 C.2       1 <0>         0.5655
      8 O1          3.7266    3.2433   -0.0170 O.2       1 <0>        -0.5209
      9 N2          4.8206    1.3103   -0.0374 N.am      1 <0>        -0.6320
     10 C7          6.0636    1.9660   -0.0462 C.2       1 <0>         0.0566
     11 C8          6.2698    3.2969   -0.0356 C.2       1 <0>         0.0545
     12 N3          7.6188    3.5587   -0.0496 N.pl3     1 <0>        -0.5717
     13 H1          8.0130    4.4450   -0.0455 H         1 <0>         0.4276
     14 C9          8.3275    2.3821   -0.0700 C.ar      1 <0>         0.3067
     15 C10         7.3873    1.3325   -0.0623 C.ar      1 <0>        -0.1557
     16 C11         7.8303    0.0111   -0.0733 C.ar      1 <0>        -0.0089
     17 C12         9.2060   -0.2173   -0.0879 C.ar      1 <0>        -0.1385
     18 C13        10.0773    0.8757   -0.0908 C.ar      1 <0>         0.1644
     19 N4          9.6268    2.1103   -0.0890 N.ar      1 <0>        -0.4914
     20 C14         9.7374   -1.6013   -0.0995 C.ar      1 <0>         0.0035
     21 C15         8.8589   -2.6852   -0.1017 C.ar      1 <0>        -0.1179
     22 C16         9.3508   -3.9706   -0.1125 C.ar      1 <0>        -0.0617
     23 C17        10.7312   -4.1899   -0.1213 C.ar      1 <0>        -0.0319
     24 C18        11.6102   -3.1031   -0.1191 C.ar      1 <0>        -0.0609
     25 C19        11.1155   -1.8187   -0.1141 C.ar      1 <0>        -0.1164
     26 C20        11.2445   -5.5267   -0.1321 C.1       1 <0>         0.2498
     27 N5         11.6516   -6.5872   -0.1407 N.1       1 <0>        -0.4124
     28 H2         -0.9559    1.9118    0.0259 H         1 <0>         0.1472
     29 H3          1.1954    3.1525    0.0072 H         1 <0>         0.1506
     30 H4          3.2169   -0.6353   -0.0324 H         1 <0>         0.1573
     31 H5         -0.9310   -0.5479    0.0084 H         1 <0>         0.1653
     32 H6          4.7836    0.3410   -0.0419 H         1 <0>         0.4124
     33 H7          5.4918    4.0458   -0.0190 H         1 <0>         0.2056
     34 H8          7.1297   -0.8108   -0.0703 H         1 <0>         0.1383
     35 H9         11.1432    0.7020   -0.1021 H         1 <0>         0.1678
     36 H10         7.7923   -2.5155   -0.0945 H         1 <0>         0.1348
     37 H11         8.6705   -4.8094   -0.1139 H         1 <0>         0.1360
     38 H12        12.6771   -3.2711   -0.1255 H         1 <0>         0.1369
     39 H13        11.7944   -0.9788   -0.1168 H         1 <0>         0.1385
@<TRIPOS>BOND
     1    1    6 ar
     2    1    2 ar
     3    1   28 1
     4    2    3 ar
     5    2   29 1
     6    3    4 ar
     7    3    7 1
     8    4    5 ar
     9    4   30 1
    10    5    6 ar
    11    6   31 1
    12    7    8 2
    13    7    9 am
    14    9   10 1
    15    9   32 1
    16   10   15 1
    17   10   11 2
    18   11   12 1
    19   11   33 1
    20   12   13 1
    21   12   14 1
    22   14   19 ar
    23   14   15 ar
    24   15   16 ar
    25   16   17 ar
    26   16   34 1
    27   17   18 ar
    28   17   20 1
    29   18   19 ar
    30   18   35 1
    31   20   25 ar
    32   20   21 ar
    33   21   22 ar
    34   21   36 1
    35   22   23 ar
    36   22   37 1
    37   23   24 ar
    38   23   26 1
    39   24   25 ar
    40   24   38 1
    41   25   39 1
    42   26   27 3
@<TRIPOS>MOLECULE
ZINC03964325
   57    59     0     0     0
SMALL
USER_CHARGES

@<TRIPOS>ATOM
      1 C1          0.1489    2.0884    0.1150 C.3       1 <0>        -0.1876
      2 C2          0.1348    0.5603    0.1888 C.3       1 <0>        -0.0191
      3 N1         -1.2520    0.0881    0.2979 N.4       1 <0>        -0.3822
      4 C3         -1.9779    0.4111   -0.9377 C.3       1 <0>        -0.0142
      5 C4         -3.4549    0.0484   -0.7712 C.3       1 <0>        -0.1895
      6 C5         -1.2593   -1.3663    0.5041 C.3       1 <0>        -0.0265
      7 C6         -0.6131   -1.6936    1.8518 C.3       1 <0>         0.0952
      8 N2         -0.6203   -3.1440    2.0575 N.am      1 <0>        -0.7289
      9 C7         -0.0988   -3.6675    3.1846 C.2       1 <0>         0.6111
     10 O1          0.3779   -2.9358    4.0309 O.2       1 <0>        -0.5184
     11 C8         -0.1061   -5.1270    3.3915 C.2       1 <0>        -0.2420
     12 C9          0.9071   -6.0320    3.0089 C.2       1 <0>        -0.0577
     13 C10         0.4868   -7.2892    3.3960 C.2       1 <0>        -0.0075
     14 N3         -0.7476   -7.1595    3.9982 N.pl3     1 <0>        -0.4910
     15 H1         -1.2731   -7.8879    4.3645 H         1 <0>         0.4270
     16 C11        -1.1044   -5.8642    4.0022 C.2       1 <0>         0.1158
     17 C12        -2.3825   -5.3072    4.5743 C.3       1 <0>        -0.0999
     18 C13         1.1957   -8.4957    3.2079 C.2       1 <0>         0.0729
     19 C14         0.5100   -9.6674    2.9570 C.2       1 <0>        -0.1889
     20 C15         1.0648  -11.0377    2.8871 C.ar      1 <0>        -0.0736
     21 C16         2.3472  -11.5557    3.0375 C.ar      1 <0>        -0.1000
     22 C17         2.5553  -12.9162    2.9116 C.ar      1 <0>         0.0861
     23 C18         1.4888  -13.7593    2.6366 C.ar      1 <0>        -0.1139
     24 C19         0.2139  -13.2531    2.4856 C.ar      1 <0>        -0.1021
     25 C20        -0.0144  -11.8871    2.6092 C.ar      1 <0>         0.1282
     26 N4         -1.1765  -11.1301    2.5069 N.am      1 <0>        -0.6466
     27 C21        -0.9294   -9.8245    2.7079 C.2       1 <0>         0.5595
     28 O2         -1.7538   -8.9280    2.6842 O.2       1 <0>        -0.5156
     29 F1          3.7984  -13.4252    3.0561 F         1 <0>        -0.1318
     30 C22         2.1990   -5.6919    2.3116 C.3       1 <0>        -0.0931
     31 H2          1.1793    2.4435    0.1331 H         1 <0>         0.1076
     32 H3         -0.3308    2.4121   -0.8087 H         1 <0>         0.0811
     33 H4         -0.3916    2.4984    0.9682 H         1 <0>         0.0809
     34 H5          0.5888    0.1488   -0.7126 H         1 <0>         0.1317
     35 H6          0.6996    0.2334    1.0619 H         1 <0>         0.1337
     36 H7         -1.8867    1.4775   -1.1444 H         1 <0>         0.1351
     37 H8         -1.5554   -0.1571   -1.7664 H         1 <0>         0.1307
     38 H9         -3.5537   -1.0316   -0.6617 H         1 <0>         0.0802
     39 H10        -3.8523    0.5414    0.1160 H         1 <0>         0.0808
     40 H11        -4.0109    0.3769   -1.6492 H         1 <0>         0.1074
     41 H12        -2.2871   -1.7292    0.4963 H         1 <0>         0.1397
     42 H13        -0.6973   -1.8494   -0.2952 H         1 <0>         0.1376
     43 H14         0.4147   -1.3306    1.8596 H         1 <0>         0.0893
     44 H15        -1.1751   -1.2105    2.6511 H         1 <0>         0.0890
     45 H16        -1.0005   -3.7277    1.3824 H         1 <0>         0.4099
     46 H17        -3.1529   -5.3000    3.8032 H         1 <0>         0.0840
     47 H18        -2.7087   -5.9289    5.4080 H         1 <0>         0.0782
     48 H19        -2.2103   -4.2898    4.9254 H         1 <0>         0.0840
     49 H20         2.2744   -8.5020    3.2604 H         1 <0>         0.1589
     50 H21         3.1765  -10.8977    3.2512 H         1 <0>         0.1436
     51 H22         1.6578  -14.8215    2.5394 H         1 <0>         0.1485
     52 H23        -0.6084  -13.9196    2.2712 H         1 <0>         0.1415
     53 H24        -2.0541  -11.4980    2.3189 H         1 <0>         0.4217
     54 H25         2.9686   -5.4822    3.0545 H         1 <0>         0.0785
     55 H26         2.5107   -6.5337    1.6932 H         1 <0>         0.0726
     56 H27         2.0522   -4.8138    1.6827 H         1 <0>         0.0634
     57 H28        -1.7009    0.5410    1.0799 H         1 <0>         0.4247
@<TRIPOS>BOND
     1    1    2 1
     2    1   31 1
     3    1   32 1
     4    1   33 1
     5    2    3 1
     6    2   34 1
     7    2   35 1
     8    3    4 1
     9    3    6 1
    10    3   57 1
    11    4    5 1
    12    4   36 1
    13    4   37 1
    14    5   38 1
    15    5   39 1
    16    5   40 1
    17    6    7 1
    18    6   41 1
    19    6   42 1
    20    7    8 1
    21    7   43 1
    22    7   44 1
    23    8    9 am
    24    8   45 1
    25    9   10 2
    26    9   11 1
    27   11   16 2
    28   11   12 1
    29   12   13 2
    30   12   30 1
    31   13   14 1
    32   13   18 1
    33   14   15 1
    34   14   16 1
    35   16   17 1
    36   17   46 1
    37   17   47 1
    38   17   48 1
    39   18   19 2
    40   18   49 1
    41   19   27 1
    42   19   20 1
    43   20   25 ar
    44   20   21 ar
    45   21   22 ar
    46   21   50 1
    47   22   23 ar
    48   22   29 1
    49   23   24 ar
    50   23   51 1
    51   24   25 ar
    52   24   52 1
    53   25   26 1
    54   26   27 am
    55   26   53 1
    56   27   28 2
    57   30   54 1
    58   30   55 1
    59   30   56 1
@<TRIPOS>MOLECULE
ZINC03820040
   62    66     0     0     0
SMALL
USER_CHARGES
N-[4-[4-(4-methylpiperazin-1-yl)-6-[(5-methyl-2H-pyrazol-3-yl)amino]pyrimidin-2-yl]sulfanylphenyl]cyclopropanecarboxamide
@<TRIPOS>ATOM
      1 C1          1.8035   -7.6837    0.5070 C.3       1 <0>        -0.0779
      2 C2          2.3685   -6.3674    0.0389 C.2       1 <0>         0.0949
      3 C3          1.9325   -5.1020    0.4407 C.2       1 <0>        -0.2905
      4 C4          2.6904   -4.1743   -0.2066 C.2       1 <0>         0.3252
      5 N1          3.5799   -4.8447   -0.9836 N.pl3     1 <0>        -0.4853
      6 H1          4.2729   -4.4328   -1.5753 H         1 <0>         0.4473
      7 N2          3.3537   -6.2159   -0.8085 N.2       1 <0>        -0.2711
      8 N3          2.5778   -2.7905   -0.0888 N.pl3     1 <0>        -0.6296
      9 C5          1.3376   -2.2123    0.1391 C.ar      1 <0>         0.4706
     10 C6          0.1755   -2.9717    0.0343 C.ar      1 <0>        -0.2983
     11 C7         -1.0466   -2.3490    0.2714 C.ar      1 <0>         0.3791
     12 N4         -1.0643   -1.0564    0.5886 N.ar      1 <0>        -0.5664
     13 C8          0.0620   -0.3646    0.6795 C.ar      1 <0>         0.3511
     14 N5          1.2425   -0.9231    0.4557 N.ar      1 <0>        -0.5606
     15 S1         -0.0125    1.3444    1.1018 S.3       1 <0>         0.1303
     16 C9          1.7078    1.7032    1.2298 C.ar      1 <0>        -0.1638
     17 C10         2.3806    1.4637    2.4214 C.ar      1 <0>        -0.0284
     18 C11         3.7293    1.7409    2.5200 C.ar      1 <0>        -0.1315
     19 C12         4.4114    2.2681    1.4313 C.ar      1 <0>         0.1902
     20 C13         3.7379    2.5125    0.2417 C.ar      1 <0>        -0.1573
     21 C14         2.3903    2.2311    0.1410 C.ar      1 <0>        -0.0288
     22 N6          5.7793    2.5539    1.5333 N.am      1 <0>        -0.6744
     23 C15         6.5739    1.7808    2.2997 C.2       1 <0>         0.5466
     24 O1          6.1269    0.7811    2.8213 O.2       1 <0>        -0.5140
     25 C16         8.0178    2.1584    2.5086 C.3       1 <0>        -0.2022
     26 C17         9.0818    1.2604    1.8742 C.3       1 <0>        -0.1494
     27 C18         8.8679    1.2402    3.3890 C.3       1 <0>        -0.1425
     28 N7         -2.2296   -3.0657    0.1789 N.pl3     1 <0>        -0.4710
     29 C19        -2.3617   -3.6957   -1.1422 C.3       1 <0>         0.0277
     30 C20        -3.6379   -4.5399   -1.1765 C.3       1 <0>         0.0040
     31 C21        -4.6643   -3.0537    0.4349 C.3       1 <0>        -0.0004
     32 C22        -3.3881   -2.2095    0.4692 C.3       1 <0>         0.0347
     33 C23        -6.0501   -4.4431   -0.9842 C.3       1 <0>        -0.0407
     34 H2          2.3381   -8.0122    1.3982 H         1 <0>         0.0831
     35 H3          0.7460   -7.5623    0.7417 H         1 <0>         0.0784
     36 H4          1.9177   -8.4287   -0.2805 H         1 <0>         0.0774
     37 H5          1.1347   -4.8964    1.1389 H         1 <0>         0.1550
     38 H6          3.3667   -2.2314   -0.1662 H         1 <0>         0.4241
     39 H7          0.2211   -4.0192   -0.2246 H         1 <0>         0.1631
     40 H8          1.8494    1.0573    3.2693 H         1 <0>         0.1319
     41 H9          4.2533    1.5509    3.4451 H         1 <0>         0.1405
     42 H10         4.2686    2.9225   -0.6049 H         1 <0>         0.1339
     43 H11         1.8666    2.4209   -0.7843 H         1 <0>         0.1341
     44 H12         6.1543    3.3081    1.0523 H         1 <0>         0.4168
     45 H13         8.2224    3.2282    2.5520 H         1 <0>         0.1306
     46 H14         8.7374    0.3965    1.3057 H         1 <0>         0.0995
     47 H15         9.9866    1.7393    1.5000 H         1 <0>         0.1100
     48 H16         9.6320    1.7059    4.0114 H         1 <0>         0.1092
     49 H17         8.3827    0.3633    3.8175 H         1 <0>         0.1093
     50 H18        -2.4158   -2.9234   -1.9095 H         1 <0>         0.0737
     51 H19        -1.4982   -4.3342   -1.3286 H         1 <0>         0.1318
     52 H20        -3.5722   -5.3290   -0.4274 H         1 <0>         0.1439
     53 H21        -3.7533   -4.9852   -2.1646 H         1 <0>         0.1412
     54 H22        -4.6102   -3.8259    1.2022 H         1 <0>         0.1407
     55 H23        -5.5278   -2.4152    0.6217 H         1 <0>         0.1407
     56 H24        -3.2729   -1.7645    1.4575 H         1 <0>         0.1357
     57 H25        -3.4537   -1.4201   -0.2796 H         1 <0>         0.0793
     58 H26        -6.8948   -3.7714   -0.8313 H         1 <0>         0.1238
     59 H27        -6.1225   -4.8989   -1.9717 H         1 <0>         0.1230
     60 H28        -6.0632   -5.2226   -0.2224 H         1 <0>         0.1251
     61 N8         -4.7966   -3.6630   -0.9051 N.4       1 <0>        -0.4014
     62 H29        -4.8229   -2.9169   -1.6099 H         1 <0>         0.4281
@<TRIPOS>BOND
     1    1    2 1
     2    1   34 1
     3    1   35 1
     4    1   36 1
     5    2    7 2
     6    2    3 1
     7    3    4 2
     8    3   37 1
     9    4    5 1
    10    4    8 1
    11    5    6 1
    12    5    7 1
    13    8    9 1
    14    8   38 1
    15    9   14 ar
    16    9   10 ar
    17   10   11 ar
    18   10   39 1
    19   11   12 ar
    20   11   28 1
    21   12   13 ar
    22   13   14 ar
    23   13   15 1
    24   15   16 1
    25   16   21 ar
    26   16   17 ar
    27   17   18 ar
    28   17   40 1
    29   18   19 ar
    30   18   41 1
    31   19   20 ar
    32   19   22 1
    33   20   21 ar
    34   20   42 1
    35   21   43 1
    36   22   23 am
    37   22   44 1
    38   23   24 2
    39   23   25 1
    40   25   27 1
    41   25   26 1
    42   25   45 1
    43   26   27 1
    44   26   46 1
    45   26   47 1
    46   27   48 1
    47   27   49 1
    48   28   32 1
    49   28   29 1
    50   29   30 1
    51   29   50 1
    52   29   51 1
    53   30   52 1
    54   30   53 1
    55   30   61 1
    56   31   32 1
    57   31   54 1
    58   31   55 1
    59   31   61 1
    60   32   56 1
    61   32   57 1
    62   33   58 1
    63   33   59 1
    64   33   60 1
    65   33   61 1
    66   61   62 1
@<TRIPOS>MOLECULE
ZINC18825339
   59    62     0     0     0
SMALL
USER_CHARGES
5-[(Z)-(5-fluoro-2-oxo-indolin-3-ylidene)methyl]-N-[(2R)-2-hydroxy-3-morpholino-propyl]-2,4-dimethyl-1H-pyrrole-3-carboxamide
@<TRIPOS>ATOM
      1 C1          3.5607    0.7280    0.3667 C.3       1 <0>        -0.0956
      2 C2          2.0758    0.7165    0.1102 C.2       1 <0>        -0.0564
      3 C3          1.2591    1.8188   -0.0477 C.2       1 <0>        -0.0308
      4 N1         -0.0271    1.3691   -0.2640 N.pl3     1 <0>        -0.5068
      5 H1         -0.8436    2.0903   -0.4163 H         1 <0>         0.4494
      6 C4         -0.0354    0.0257   -0.2455 C.2       1 <0>         0.1277
      7 C5          1.2525   -0.4230   -0.0155 C.2       1 <0>        -0.2308
      8 C6          1.6847   -1.8291    0.0810 C.2       1 <0>         0.5980
      9 O1          2.0430   -2.4250   -0.9167 O.2       1 <0>        -0.5421
     10 N2          1.6827   -2.4542    1.2750 N.am      1 <0>        -0.7266
     11 C7          2.1121   -3.8516    1.3710 C.3       1 <0>         0.1299
     12 C8          2.0150   -4.3162    2.8255 C.3       1 <0>         0.1144
     13 H2          2.5334   -3.6206    3.5018 H         1 <0>         0.0568
     14 C9          2.5799   -5.7329    2.9471 C.3       1 <0>         0.0228
     15 N3          2.4867   -6.1790    4.3436 N.3       1 <0>        -0.5349
     16 C10         3.3671   -5.3829    5.2109 C.3       1 <0>         0.0083
     17 C11         3.1945   -5.8402    6.6618 C.3       1 <0>         0.0618
     18 O2          3.4694   -7.2408    6.7508 O.3       1 <0>        -0.3843
     19 C12         2.6296   -8.0463    5.9193 C.3       1 <0>         0.0614
     20 C13         2.7965   -7.6114    4.4609 C.3       1 <0>         0.0172
     21 O3          0.6463   -4.3123    3.2364 O.3       1 <0>        -0.5882
     22 C14        -1.2476   -0.8477   -0.4426 C.3       1 <0>        -0.0994
     23 C15         1.6686    3.1691    0.0027 C.2       1 <0>         0.0908
     24 C16         0.8216    4.1284    0.5209 C.2       1 <0>        -0.2125
     25 C17         1.0162    5.5955    0.5210 C.ar      1 <0>        -0.0684
     26 C18         2.0202    6.4240    0.0297 C.ar      1 <0>        -0.1043
     27 C19         1.9118    7.7937    0.1786 C.ar      1 <0>         0.0808
     28 C20         0.8031    8.3379    0.8097 C.ar      1 <0>        -0.1198
     29 C21        -0.2000    7.5233    1.2941 C.ar      1 <0>        -0.1061
     30 C22        -0.1080    6.1430    1.1533 C.ar      1 <0>         0.1250
     31 N4         -0.9593    5.1144    1.5420 N.am      1 <0>        -0.6604
     32 C23        -0.4649    3.9133    1.1971 C.2       1 <0>         0.5647
     33 O4         -0.9909    2.8351    1.4086 O.2       1 <0>        -0.5132
     34 F1          2.8866    8.6030   -0.2904 F         1 <0>        -0.1355
     35 H3          3.9167    1.7678    0.4131 H         1 <0>         0.0672
     36 H4          4.0776    0.1994   -0.4478 H         1 <0>         0.0746
     37 H5          3.7717    0.2252    1.3221 H         1 <0>         0.0710
     38 H6          1.3586   -1.9152    2.1775 H         1 <0>         0.4262
     39 H7          1.4633   -4.4786    0.7417 H         1 <0>         0.0750
     40 H8          3.1531   -3.9398    1.0266 H         1 <0>         0.0785
     41 H9          2.0023   -6.4143    2.3052 H         1 <0>         0.0900
     42 H10         3.6334   -5.7360    2.6307 H         1 <0>         0.0465
     43 H11         4.4130   -5.5254    4.9015 H         1 <0>         0.0459
     44 H12         3.1012   -4.3189    5.1257 H         1 <0>         0.0881
     45 H13         3.8925   -5.2859    7.3064 H         1 <0>         0.1001
     46 H14         2.1618   -5.6458    6.9871 H         1 <0>         0.0615
     47 H15         2.9156   -9.1033    6.0238 H         1 <0>         0.1009
     48 H16         1.5805   -7.9185    6.2243 H         1 <0>         0.0621
     49 H17         2.1104   -8.1883    3.8234 H         1 <0>         0.0898
     50 H18         3.8332   -7.7899    4.1393 H         1 <0>         0.0455
     51 H19         0.3780   -4.6185    4.2583 H         1 <0>         0.4136
     52 H20        -0.9523   -1.9052   -0.3757 H         1 <0>         0.0845
     53 H21        -1.6843   -0.6508   -1.4328 H         1 <0>         0.0777
     54 H22        -1.9909   -0.6245    0.3369 H         1 <0>         0.0809
     55 H23         2.6624    3.4568   -0.3709 H         1 <0>         0.1579
     56 H24         2.8828    5.9984   -0.4614 H         1 <0>         0.1409
     57 H25         0.7239    9.4091    0.9228 H         1 <0>         0.1443
     58 H26        -1.0583    7.9589    1.7840 H         1 <0>         0.1386
     59 H27        -1.9003    5.3463    2.0623 H         1 <0>         0.4455
@<TRIPOS>BOND
     1    1    2 1
     2    1   35 1
     3    1   36 1
     4    1   37 1
     5    2    7 1
     6    2    3 2
     7    3    4 1
     8    3   23 1
     9    4    5 1
    10    4    6 1
    11    6    7 2
    12    6   22 1
    13    7    8 1
    14    8    9 2
    15    8   10 am
    16   10   11 1
    17   10   38 1
    18   11   12 1
    19   11   39 1
    20   11   40 1
    21   12   13 1
    22   12   14 1
    23   12   21 1
    24   14   15 1
    25   14   41 1
    26   14   42 1
    27   15   20 1
    28   15   16 1
    29   16   17 1
    30   16   43 1
    31   16   44 1
    32   17   18 1
    33   17   45 1
    34   17   46 1
    35   18   19 1
    36   19   20 1
    37   19   47 1
    38   19   48 1
    39   20   49 1
    40   20   50 1
    41   21   51 1
    42   22   52 1
    43   22   53 1
    44   22   54 1
    45   23   24 2
    46   23   55 1
    47   24   32 1
    48   24   25 1
    49   25   30 ar
    50   25   26 ar
    51   26   27 ar
    52   26   56 1
    53   27   28 ar
    54   27   34 1
    55   28   29 ar
    56   28   57 1
    57   29   30 ar
    58   29   58 1
    59   30   31 1
    60   31   32 am
    61   31   59 1
    62   32   33 2
@<TRIPOS>MOLECULE
ZINC18825344
   59    62     0     0     0
SMALL
USER_CHARGES
5-[(Z)-(5-fluoro-2-oxo-indolin-3-ylidene)methyl]-N-[(2S)-2-hydroxy-3-morpholino-propyl]-2,4-dimethyl-1H-pyrrole-3-carboxamide
@<TRIPOS>ATOM
      1 C1          4.7056    0.6287    1.0117 C.3       1 <0>        -0.0968
      2 C2          3.2464    0.8378    0.6983 C.2       1 <0>        -0.0523
      3 C3          2.5980    2.0501    0.5678 C.2       1 <0>        -0.0327
      4 N1          1.2732    1.7961    0.2789 N.pl3     1 <0>        -0.5060
      5 H1          0.5720    2.6311    0.1339 H         1 <0>         0.4496
      6 C4          1.0783    0.4679    0.2258 C.2       1 <0>         0.1246
      7 C5          2.2801   -0.1676    0.4808 C.2       1 <0>        -0.2308
      8 C6          2.5088   -1.6234    0.5191 C.2       1 <0>         0.5976
      9 O1          2.8262   -2.2159   -0.4944 O.2       1 <0>        -0.5428
     10 N2          2.3662   -2.2977    1.6773 N.am      1 <0>        -0.7254
     11 C7          2.5935   -3.7444    1.7154 C.3       1 <0>         0.1298
     12 C8          2.3672   -4.2590    3.1384 C.3       1 <0>         0.1172
     13 H2          1.3599   -4.0040    3.4994 H         1 <0>         0.0560
     14 C9          2.6045   -5.7699    3.1781 C.3       1 <0>         0.0219
     15 N3          2.3382   -6.2720    4.5327 N.3       1 <0>        -0.5356
     16 C10         2.9762   -7.5793    4.7450 C.3       1 <0>         0.0168
     17 C11         2.7241   -8.0365    6.1842 C.3       1 <0>         0.0612
     18 O2          1.3152   -8.0759    6.4267 O.3       1 <0>        -0.3844
     19 C12         0.6618   -6.8191    6.2299 C.3       1 <0>         0.0617
     20 C13         0.8930   -6.3496    4.7911 C.3       1 <0>         0.0111
     21 O3          3.2765   -3.6103    4.0297 O.3       1 <0>        -0.5892
     22 C14        -0.2328   -0.2165   -0.0637 C.3       1 <0>        -0.0987
     23 C15         3.1876    3.3256    0.7056 C.2       1 <0>         0.0935
     24 C16         2.4515    4.3746    1.2192 C.2       1 <0>        -0.2157
     25 C17         2.8515    5.7966    1.3077 C.ar      1 <0>        -0.0669
     26 C18         3.9943    6.4912    0.9234 C.ar      1 <0>        -0.1048
     27 C19         4.0710    7.8545    1.1363 C.ar      1 <0>         0.0814
     28 C20         3.0098    8.5263    1.7247 C.ar      1 <0>        -0.1204
     29 C21         1.8704    7.8457    2.1029 C.ar      1 <0>        -0.1055
     30 C22         1.7753    6.4739    1.8965 C.ar      1 <0>         0.1237
     31 N4          0.7622    5.5637    2.1775 N.am      1 <0>        -0.6596
     32 C23         1.1039    4.3195    1.8021 C.2       1 <0>         0.5657
     33 O4          0.4171    3.3209    1.9242 O.2       1 <0>        -0.5153
     34 F1          5.1807    8.5334    0.7715 F         1 <0>        -0.1355
     35 H3          5.1994    1.6049    1.1269 H         1 <0>         0.0668
     36 H4          5.1808    0.0720    0.1906 H         1 <0>         0.0744
     37 H5          4.8016    0.0567    1.9464 H         1 <0>         0.0741
     38 H6          2.0791   -1.7617    2.5940 H         1 <0>         0.4273
     39 H7          1.8935   -4.2437    1.0293 H         1 <0>         0.0777
     40 H8          3.6268   -3.9615    1.4070 H         1 <0>         0.0736
     41 H9          1.9304   -6.2658    2.4641 H         1 <0>         0.0486
     42 H10         3.6486   -5.9844    2.9062 H         1 <0>         0.0884
     43 H11         2.5501   -8.3132    4.0451 H         1 <0>         0.0451
     44 H12         4.0587   -7.4917    4.5704 H         1 <0>         0.0900
     45 H13         3.1515   -9.0395    6.3305 H         1 <0>         0.1008
     46 H14         3.1986   -7.3305    6.8817 H         1 <0>         0.0620
     47 H15        -0.4170   -6.9344    6.4112 H         1 <0>         0.1000
     48 H16         1.0741   -6.0778    6.9303 H         1 <0>         0.0613
     49 H17         0.4415   -5.3564    4.6504 H         1 <0>         0.0873
     50 H18         0.4333   -7.0637    4.0920 H         1 <0>         0.0461
     51 H19         3.2627   -3.8533    5.1024 H         1 <0>         0.4141
     52 H20        -0.0899   -1.3070   -0.0417 H         1 <0>         0.0829
     53 H21        -0.5927    0.0862   -1.0581 H         1 <0>         0.0781
     54 H22        -0.9728    0.0718    0.6974 H         1 <0>         0.0803
     55 H23         4.2335    3.4835    0.4037 H         1 <0>         0.1584
     56 H24         4.8196    5.9664    0.4654 H         1 <0>         0.1411
     57 H25         3.0756    9.5918    1.8882 H         1 <0>         0.1443
     58 H26         1.0507    8.3797    2.5605 H         1 <0>         0.1385
     59 H27        -0.1701    5.9069    2.6497 H         1 <0>         0.4455
@<TRIPOS>BOND
     1    1    2 1
     2    1   35 1
     3    1   36 1
     4    1   37 1
     5    2    7 1
     6    2    3 2
     7    3    4 1
     8    3   23 1
     9    4    5 1
    10    4    6 1
    11    6    7 2
    12    6   22 1
    13    7    8 1
    14    8    9 2
    15    8   10 am
    16   10   11 1
    17   10   38 1
    18   11   12 1
    19   11   39 1
    20   11   40 1
    21   12   13 1
    22   12   14 1
    23   12   21 1
    24   14   15 1
    25   14   41 1
    26   14   42 1
    27   15   20 1
    28   15   16 1
    29   16   17 1
    30   16   43 1
    31   16   44 1
    32   17   18 1
    33   17   45 1
    34   17   46 1
    35   18   19 1
    36   19   20 1
    37   19   47 1
    38   19   48 1
    39   20   49 1
    40   20   50 1
    41   21   51 1
    42   22   52 1
    43   22   53 1
    44   22   54 1
    45   23   24 2
    46   23   55 1
    47   24   32 1
    48   24   25 1
    49   25   30 ar
    50   25   26 ar
    51   26   27 ar
    52   26   56 1
    53   27   28 ar
    54   27   34 1
    55   28   29 ar
    56   28   57 1
    57   29   30 ar
    58   29   58 1
    59   30   31 1
    60   31   32 am
    61   31   59 1
    62   32   33 2
@<TRIPOS>MOLECULE
ZINC04335977
   25    28     0     0     0
SMALL
USER_CHARGES

@<TRIPOS>ATOM
      1 C1         -0.0166    1.3742    0.0096 C.ar      1 <0>        -0.0830
      2 C2          1.1706    2.0916    0.0021 C.ar      1 <0>        -0.1243
      3 C3          2.3823    1.4397   -0.0153 C.ar      1 <0>        -0.0569
      4 C4          2.4281    0.0410   -0.0258 C.ar      1 <0>        -0.1454
      5 C5          1.2170   -0.6851   -0.0143 C.ar      1 <0>         0.0500
      6 C6          0.0021   -0.0041    0.0020 C.ar      1 <0>        -0.1088
      7 C7          1.2506   -2.1591   -0.0199 C.2       1 <0>         0.0730
      8 C8          2.5639   -2.7742   -0.0443 C.ar      1 <0>        -0.1429
      9 C9          3.7793   -2.1038   -0.0604 C.ar      1 <0>        -0.1081
     10 C10         4.9294   -2.8876   -0.0855 C.ar      1 <0>        -0.0580
     11 C11         4.7889   -4.2709   -0.0911 C.ar      1 <0>        -0.1027
     12 C12         3.5603   -4.9095   -0.0724 C.ar      1 <0>        -0.0703
     13 C13         2.3922   -4.1530   -0.0476 C.ar      1 <0>         0.0737
     14 N1          1.0342   -4.3134   -0.0236 N.pl3     1 <0>        -0.4208
     15 H1          0.5868   -5.1740   -0.0178 H         1 <0>         0.4498
     16 N2          0.4180   -3.1700   -0.0087 N.2       1 <0>        -0.2006
     17 C14         3.7440   -0.6349   -0.0491 C.2       1 <0>         0.4424
     18 O1          4.7754    0.0120   -0.0592 O.2       1 <0>        -0.4413
     19 H2         -0.9607    1.8984    0.0260 H         1 <0>         0.1352
     20 H3          1.1437    3.1712    0.0097 H         1 <0>         0.1350
     21 H4          3.3001    2.0089   -0.0212 H         1 <0>         0.1415
     22 H5         -0.9260   -0.5563    0.0084 H         1 <0>         0.1375
     23 H6          5.9084   -2.4317   -0.1006 H         1 <0>         0.1458
     24 H7          5.6823   -4.8774   -0.1113 H         1 <0>         0.1405
     25 H8          3.5088   -5.9882   -0.0775 H         1 <0>         0.1387
@<TRIPOS>BOND
     1    1    6 ar
     2    1    2 ar
     3    1   19 1
     4    2    3 ar
     5    2   20 1
     6    3    4 ar
     7    3   21 1
     8    4   17 1
     9    4    5 ar
    10    5    6 ar
    11    5    7 1
    12    6   22 1
    13    7   16 2
    14    7    8 1
    15    8   13 ar
    16    8    9 ar
    17    9   10 ar
    18    9   17 1
    19   10   11 ar
    20   10   23 1
    21   11   12 ar
    22   11   24 1
    23   12   13 ar
    24   12   25 1
    25   13   14 1
    26   14   15 1
    27   14   16 1
    28   17   18 2
@<TRIPOS>MOLECULE
ZINC04335977
   25    28     0     0     0
SMALL
USER_CHARGES

@<TRIPOS>ATOM
      1 C1         -0.0168    1.3856    0.0097 C.ar      1 <0>        -0.1427
      2 C2          1.1170    2.1945    0.0032 C.ar      1 <0>        -0.0217
      3 C3          2.3711    1.6150   -0.0018 C.ar      1 <0>        -0.1545
      4 C4          2.3811    0.2055    0.0219 C.ar      1 <0>        -0.1284
      5 C5          1.2547   -0.6338   -0.0010 C.ar      1 <0>        -0.0019
      6 C6          0.0021   -0.0041    0.0020 C.ar      1 <0>        -0.0002
      7 N1          1.7529   -1.8663   -0.0388 N.2       1 <0>        -0.2064
      8 N2          3.0585   -1.8827   -0.0212 N.2       1 <0>        -0.1750
      9 C7          3.5637   -0.6566    0.0553 C.2       1 <0>        -0.0804
     10 C8          4.8090   -0.0488    0.2082 C.2       1 <0>         0.1832
     11 C9          5.9893   -0.7697    0.0663 C.2       1 <0>        -0.1794
     12 C10         7.1922   -0.1305    0.0279 C.2       1 <0>         0.0175
     13 C11         7.2645    1.2786    0.0514 C.2       1 <0>        -0.1580
     14 C12         6.1810    2.0262    0.2746 C.2       1 <0>        -0.0648
     15 C13         4.8472    1.4205    0.5359 C.3       1 <0>        -0.1143
     16 H1          4.7113    1.4792    1.6158 H         1 <0>         0.1756
     17 C14         3.7065    2.2205   -0.0350 C.2       1 <0>         0.4372
     18 O1          3.8852    3.3247   -0.5044 O.2       1 <0>        -0.4218
     19 H2         -0.9802    1.8735    0.0262 H         1 <0>         0.1380
     20 H3          1.0162    3.2698    0.0017 H         1 <0>         0.1414
     21 H4         -0.9134   -0.5771   -0.0011 H         1 <0>         0.1493
     22 H5          5.9525   -1.8461   -0.0139 H         1 <0>         0.1574
     23 H6          8.1023   -0.7101   -0.0209 H         1 <0>         0.1503
     24 H7          8.2158    1.7622   -0.1141 H         1 <0>         0.1476
     25 H8          6.2755    3.1020    0.2656 H         1 <0>         0.1520
@<TRIPOS>BOND
     1    1    6 ar
     2    1    2 ar
     3    1   19 1
     4    2    3 ar
     5    2   20 1
     6    3   17 1
     7    3    4 ar
     8    4    9 1
     9    4    5 ar
    10    5    6 ar
    11    5    7 1
    12    6   21 1
    13    7    8 2
    14    8    9 1
    15    9   10 2
    16   10   15 1
    17   10   11 1
    18   11   12 2
    19   11   22 1
    20   12   13 1
    21   12   23 1
    22   13   14 2
    23   13   24 1
    24   14   15 1
    25   14   25 1
    26   15   16 1
    27   15   17 1
    28   17   18 2
@<TRIPOS>MOLECULE
ZINC04335977
   25    28     0     0     0
SMALL
USER_CHARGES

@<TRIPOS>ATOM
      1 C1         -0.0164    1.3596    0.0095 C.ar      1 <0>        -0.0576
      2 C2          1.1713    2.0855    0.0021 C.ar      1 <0>        -0.1347
      3 C3          2.3768    1.4549   -0.0120 C.ar      1 <0>        -0.0679
      4 C4          2.4386    0.0472   -0.0213 C.ar      1 <0>        -0.1308
      5 C5          1.2221   -0.6871   -0.0140 C.ar      1 <0>         0.1082
      6 C6          0.0021   -0.0041    0.0020 C.ar      1 <0>        -0.1288
      7 C7          1.2623   -2.1488   -0.0253 C.ar      1 <0>        -0.0283
      8 C8          2.5333   -2.7124   -0.0445 C.ar      1 <0>        -0.1739
      9 C9          3.7767   -1.9860   -0.0536 C.ar      1 <0>        -0.1204
     10 C10         3.7083   -0.5824   -0.0381 C.ar      1 <0>         0.2929
     11 O1          4.8379    0.1571   -0.0391 O.3       1 <0>        -0.4795
     12 C11         4.9469   -2.7593   -0.0757 C.ar      1 <0>         0.0289
     13 C12         4.8276   -4.1389   -0.0827 C.ar      1 <0>        -0.1839
     14 C13         3.6180   -4.8159   -0.0703 C.ar      1 <0>         0.1011
     15 C14         2.4158   -4.1083   -0.0517 C.ar      1 <0>        -0.0377
     16 N1          1.0921   -4.3196   -0.0378 N.2       1 <0>        -0.2189
     17 N2          0.4367   -3.1958   -0.0225 N.2       1 <0>        -0.1913
     18 H1         -0.9619    1.8814    0.0259 H         1 <0>         0.1383
     19 H2          1.1354    3.1649    0.0072 H         1 <0>         0.1360
     20 H3          3.2881    2.0345   -0.0163 H         1 <0>         0.1414
     21 H4         -0.9259   -0.5566    0.0089 H         1 <0>         0.1451
     22 H5          5.9191   -2.2892   -0.0875 H         1 <0>         0.1508
     23 H6          5.7348   -4.7247   -0.0991 H         1 <0>         0.1453
     24 H7          3.6062   -5.8959   -0.0754 H         1 <0>         0.1485
     25 H8          5.1739    0.3631    0.8439 H         1 <0>         0.4170
@<TRIPOS>BOND
     1    1    6 ar
     2    1    2 ar
     3    1   18 1
     4    2    3 ar
     5    2   19 1
     6    3    4 ar
     7    3   20 1
     8    4   10 ar
     9    4    5 ar
    10    5    6 ar
    11    5    7 ar
    12    6   21 1
    13    7   17 1
    14    7    8 ar
    15    8   15 ar
    16    8    9 ar
    17    9   10 ar
    18    9   12 ar
    19   10   11 1
    20   11   25 1
    21   12   13 ar
    22   12   22 1
    23   13   14 ar
    24   13   23 1
    25   14   15 ar
    26   14   24 1
    27   15   16 1
    28   16   17 2
@<TRIPOS>MOLECULE
ZINC04335977
   25    28     0     0     0
SMALL
USER_CHARGES

@<TRIPOS>ATOM
      1 C1         -0.0166    1.3716    0.0096 C.ar      1 <0>        -0.0800
      2 C2          1.1708    2.0918    0.0021 C.ar      1 <0>        -0.1245
      3 C3          2.3828    1.4428   -0.0127 C.ar      1 <0>        -0.0544
      4 C4          2.4320    0.0434   -0.0205 C.ar      1 <0>        -0.1405
      5 C5          1.2210   -0.6886   -0.0124 C.ar      1 <0>         0.0405
      6 C6          0.0021   -0.0041    0.0020 C.ar      1 <0>        -0.1261
      7 C7          1.2457   -2.1536   -0.0208 C.2       1 <0>         0.0504
      8 C8          2.4853   -2.7488   -0.0355 C.ar      1 <0>        -0.1585
      9 C9          3.7667   -2.0921   -0.0444 C.ar      1 <0>        -0.1299
     10 C10         4.8847   -2.9128   -0.0585 C.ar      1 <0>        -0.0238
     11 C11         4.7118   -4.2966   -0.0633 C.ar      1 <0>        -0.1212
     12 C12         3.5050   -4.9362   -0.0556 C.ar      1 <0>        -0.0231
     13 C13         2.3094   -4.1914   -0.0406 C.ar      1 <0>         0.0660
     14 N1          0.9988   -4.3425   -0.0297 N.2       1 <0>        -0.2551
     15 H1         -0.5846   -3.1031   -0.0098 H         1 <0>         0.4487
     16 N2          0.3807   -3.1981   -0.0186 N.pl3     1 <0>        -0.3308
     17 C14         3.7519   -0.6254   -0.0360 C.2       1 <0>         0.4405
     18 O1          4.7871    0.0179   -0.0431 O.2       1 <0>        -0.4447
     19 H2         -0.9611    1.8950    0.0259 H         1 <0>         0.1352
     20 H3          1.1418    3.1714    0.0076 H         1 <0>         0.1359
     21 H4          3.2994    2.0140   -0.0187 H         1 <0>         0.1430
     22 H5         -0.9262   -0.5560    0.0082 H         1 <0>         0.1296
     23 H6          5.8766   -2.4856   -0.0660 H         1 <0>         0.1446
     24 H7          5.6007   -4.9099   -0.0744 H         1 <0>         0.1377
     25 H8          3.4673   -6.0156   -0.0604 H         1 <0>         0.1406
@<TRIPOS>BOND
     1    1    6 ar
     2    1    2 ar
     3    1   19 1
     4    2    3 ar
     5    2   20 1
     6    3    4 ar
     7    3   21 1
     8    4   17 1
     9    4    5 ar
    10    5    6 ar
    11    5    7 1
    12    6   22 1
    13    7    8 2
    14    7   16 1
    15    8    9 ar
    16    8   13 ar
    17    9   10 ar
    18    9   17 1
    19   10   11 ar
    20   10   23 1
    21   11   12 ar
    22   11   24 1
    23   12   13 ar
    24   12   25 1
    25   13   14 2
    26   14   16 1
    27   15   16 1
    28   17   18 2
