@<TRIPOS>MOLECULE
ZINC02004481
   45    46     0     0     0
SMALL
USER_CHARGES
2-[2-amino-3-(4-hydroxyphenyl)-propanoyl]amino-3-(4-hydroxyphenyl)-propanoic acid
@<TRIPOS>ATOM
      1 C1          2.6792    4.7016   -1.2228 C.ar      1 <0>        -0.0843
      2 C2          3.8037    5.5038   -1.2051 C.ar      1 <0>        -0.1357
      3 C3          5.0589    4.9406   -1.3844 C.ar      1 <0>         0.1210
      4 C4          5.1817    3.5720   -1.5754 C.ar      1 <0>        -0.1378
      5 C5          4.0545    2.7735   -1.5866 C.ar      1 <0>        -0.1183
      6 C6          2.8047    3.3371   -1.4077 C.ar      1 <0>        -0.1287
      7 C7          1.5768    2.4636   -1.4204 C.3       1 <0>        -0.0904
      8 C8          1.2803    1.9798    0.0005 C.3       1 <0>         0.0202
      9 H1          1.1960    2.8385    0.6665 H         1 <0>         0.1575
     10 C9         -0.0144    1.2086    0.0087 C.2       1 <0>         0.5005
     11 O1          0.0021   -0.0041    0.0020 O.2       1 <0>        -0.5294
     12 N1         -1.1906    1.8666    0.0178 N.am      1 <0>        -0.6637
     13 C10        -2.4492    1.1169    0.0197 C.3       1 <0>         0.1063
     14 H2         -2.3279    0.2045    0.6037 H         1 <0>         0.0991
     15 C11        -3.5535    1.9758    0.6393 C.3       1 <0>        -0.0782
     16 C12        -3.2381    2.2290    2.0910 C.ar      1 <0>        -0.0811
     17 C13        -3.6992    1.3568    3.0597 C.ar      1 <0>        -0.0956
     18 C14        -3.4066    1.5836    4.3907 C.ar      1 <0>        -0.1388
     19 C15        -2.6591    2.6938    4.7559 C.ar      1 <0>         0.0941
     20 C16        -2.2024    3.5705    3.7825 C.ar      1 <0>        -0.1458
     21 C17        -2.4929    3.3361    2.4524 C.ar      1 <0>        -0.1085
     22 O2         -2.3742    2.9218    6.0650 O.3       1 <0>        -0.5026
     23 C18        -2.8242    0.7611   -1.3959 C.2       1 <0>         0.4584
     24 O3         -2.1130    1.0991   -2.3123 O.co2     1 <0>        -0.6288
     25 O4          6.1663    5.7283   -1.3725 O.3       1 <0>        -0.4989
     26 H3          1.7014    5.1401   -1.0881 H         1 <0>         0.1366
     27 H4          3.7055    6.5689   -1.0562 H         1 <0>         0.1371
     28 H5          6.1577    3.1312   -1.7149 H         1 <0>         0.1362
     29 H6          4.1496    1.7079   -1.7349 H         1 <0>         0.1289
     30 H7          1.7489    1.6042   -2.0684 H         1 <0>         0.1090
     31 H8          0.7276    3.0359   -1.7939 H         1 <0>         0.1305
     32 H9         -1.2037    2.8365    0.0232 H         1 <0>         0.3990
     33 H10        -3.6146    2.9265    0.1096 H         1 <0>         0.0778
     34 H11        -4.5072    1.4539    0.5603 H         1 <0>         0.1072
     35 H12        -4.2848    0.4951    2.7753 H         1 <0>         0.1321
     36 H13        -3.7632    0.8997    5.1466 H         1 <0>         0.1287
     37 H14        -1.6200    4.4352    4.0643 H         1 <0>         0.1253
     38 H15        -2.1373    4.0181    1.6942 H         1 <0>         0.1211
     39 H16        -3.0333    3.4616    6.5227 H         1 <0>         0.3911
     40 H17         2.4700    0.3057   -0.1425 H         1 <0>         0.4429
     41 H18         3.2388    1.6212    0.5241 H         1 <0>         0.4360
     42 H19         6.4141    6.0716   -2.2419 H         1 <0>         0.4002
     43 O5         -3.9482    0.0688   -1.6386 O.co2     1 <0>        -0.7440
     44 N2          2.3626    1.1033    0.4820 N.4       1 <0>        -0.6288
     45 H20         2.1287    0.7635    1.4222 H         1 <0>         0.4430
@<TRIPOS>BOND
     1    1    6 ar
     2    1    2 ar
     3    1   26 1
     4    2    3 ar
     5    2   27 1
     6    3    4 ar
     7    3   25 1
     8    4    5 ar
     9    4   28 1
    10    5    6 ar
    11    5   29 1
    12    6    7 1
    13    7    8 1
    14    7   30 1
    15    7   31 1
    16    8    9 1
    17    8   10 1
    18    8   44 1
    19   10   11 2
    20   10   12 am
    21   12   13 1
    22   12   32 1
    23   13   14 1
    24   13   15 1
    25   13   23 1
    26   15   16 1
    27   15   33 1
    28   15   34 1
    29   16   21 ar
    30   16   17 ar
    31   17   18 ar
    32   17   35 1
    33   18   19 ar
    34   18   36 1
    35   19   20 ar
    36   19   22 1
    37   20   21 ar
    38   20   37 1
    39   21   38 1
    40   22   39 1
    41   23   24 2
    42   23   43 1
    43   25   42 1
    44   40   44 1
    45   41   44 1
    46   44   45 1
