@<TRIPOS>MOLECULE
ZINC05162062
   29    31     0     0     0
SMALL
USER_CHARGES
5-fluoro-3-[(E)-2-(4-pyridyl)vinyl]-1H-indole
@<TRIPOS>ATOM
      1 C1          3.3821    2.5358   -0.0171 C.ar      1 <0>        -0.1314
      2 C2          2.4747    1.4990   -0.0131 C.ar      1 <0>        -0.0935
      3 C3          1.1104    1.7699    0.0010 C.ar      1 <0>         0.0804
      4 C4          0.6722    3.1043    0.0118 C.ar      1 <0>        -0.0656
      5 C5          1.5994    4.1440    0.0080 C.ar      1 <0>        -0.1097
      6 C6          2.9484    3.8556   -0.0064 C.ar      1 <0>         0.0799
      7 F1          3.8513    4.8606   -0.0097 F         1 <0>        -0.1387
      8 C7         -0.8007    3.0481    0.0252 C.2       1 <0>        -0.1578
      9 C8         -1.1389    1.7288    0.0163 C.2       1 <0>         0.0896
     10 N1         -0.0111    0.9658    0.0074 N.pl3     1 <0>        -0.5827
     11 H1          0.0021   -0.0041    0.0020 H         1 <0>         0.4221
     12 C9         -1.7237    4.1920    0.0396 C.2       1 <0>        -0.0312
     13 C10        -3.0531    3.9837    0.0509 C.2       1 <0>        -0.1478
     14 C11        -3.9773    5.1290    0.0653 C.ar      1 <0>         0.0005
     15 C12        -3.4941    6.4459    0.0733 C.ar      1 <0>        -0.1765
     16 C13        -4.3960    7.4875    0.0825 C.ar      1 <0>         0.1036
     17 N2         -5.6962    7.2592    0.0934 N.ar      1 <0>        -0.4932
     18 C14        -6.1941    6.0365    0.0910 C.ar      1 <0>         0.1019
     19 C15        -5.3665    4.9349    0.0773 C.ar      1 <0>        -0.1706
     20 H2          4.4404    2.3205   -0.0288 H         1 <0>         0.1415
     21 H3          2.8225    0.4766   -0.0212 H         1 <0>         0.1337
     22 H4          1.2638    5.1705    0.0167 H         1 <0>         0.1368
     23 H5         -2.1487    1.3458    0.0188 H         1 <0>         0.1792
     24 H6         -1.3349    5.1996    0.0410 H         1 <0>         0.1240
     25 H7         -3.4418    2.9761    0.0495 H         1 <0>         0.1226
     26 H8         -2.4317    6.6402    0.0691 H         1 <0>         0.1357
     27 H9         -4.0341    8.5051    0.0850 H         1 <0>         0.1559
     28 H10        -7.2651    5.8977    0.1003 H         1 <0>         0.1558
     29 H11        -5.7809    3.9376    0.0754 H         1 <0>         0.1355
@<TRIPOS>BOND
     1    1    6 ar
     2    1    2 ar
     3    1   20 1
     4    2    3 ar
     5    2   21 1
     6    3   10 1
     7    3    4 ar
     8    4    5 ar
     9    4    8 1
    10    5    6 ar
    11    5   22 1
    12    6    7 1
    13    8    9 2
    14    8   12 1
    15    9   10 1
    16    9   23 1
    17   10   11 1
    18   12   13 2
    19   12   24 1
    20   13   14 1
    21   13   25 1
    22   14   19 ar
    23   14   15 ar
    24   15   16 ar
    25   15   26 1
    26   16   17 ar
    27   16   27 1
    28   17   18 ar
    29   18   19 ar
    30   18   28 1
    31   19   29 1
@<TRIPOS>MOLECULE
ZINC00019965
   29    31     0     0     0
SMALL
USER_CHARGES
6-fluoro-3-[2-(3-pyridyl)vinyl]-1H-indole
@<TRIPOS>ATOM
      1 C1          7.9031    6.4341   -0.0369 C.ar      1 <0>        -0.1679
      2 C2          7.4870    5.1147   -0.0401 C.ar      1 <0>        -0.0721
      3 C3          6.1102    4.8528   -0.0284 C.ar      1 <0>        -0.0969
      4 C4          5.2191    5.9297   -0.0194 C.ar      1 <0>         0.0999
      5 N1          5.6664    7.1679   -0.0120 N.ar      1 <0>        -0.4812
      6 C5          6.9569    7.4431   -0.0223 C.ar      1 <0>         0.0912
      7 C6          5.6109    3.4667   -0.0317 C.2       1 <0>        -0.1331
      8 C7          4.2877    3.2289   -0.0204 C.2       1 <0>        -0.0460
      9 C8          3.7891    1.8449   -0.0237 C.2       1 <0>        -0.1454
     10 C9          4.5396    0.7100   -0.0371 C.2       1 <0>         0.0773
     11 N2          3.7219   -0.3816   -0.0358 N.pl3     1 <0>        -0.5845
     12 H1          4.0264   -1.3025   -0.0441 H         1 <0>         0.4215
     13 C10         2.4005    0.0117   -0.0214 C.ar      1 <0>         0.1186
     14 C11         2.3787    1.4163   -0.0131 C.ar      1 <0>        -0.1030
     15 C12         1.1629    2.0962    0.0022 C.ar      1 <0>        -0.0402
     16 C13        -0.0168    1.3853    0.0097 C.ar      1 <0>        -0.1733
     17 C14         0.0021   -0.0041    0.0020 C.ar      1 <0>         0.1219
     18 C15         1.1993   -0.6898   -0.0136 C.ar      1 <0>        -0.1666
     19 F1         -1.1621   -0.6895    0.0095 F         1 <0>        -0.1361
     20 H2          8.9561    6.6740   -0.0460 H         1 <0>         0.1364
     21 H3          8.2045    4.3075   -0.0510 H         1 <0>         0.1353
     22 H4          4.1551    5.7445   -0.0148 H         1 <0>         0.1566
     23 H5          7.2798    8.4736   -0.0198 H         1 <0>         0.1557
     24 H6          6.3077    2.6417   -0.0432 H         1 <0>         0.1203
     25 H7          3.5908    4.0539   -0.0088 H         1 <0>         0.1237
     26 H8          5.6191    0.6784   -0.0475 H         1 <0>         0.1779
     27 H9          1.1453    3.1761    0.0079 H         1 <0>         0.1360
     28 H10        -0.9607    1.9101    0.0170 H         1 <0>         0.1395
     29 H11         1.2038   -1.7698   -0.0194 H         1 <0>         0.1347
@<TRIPOS>BOND
     1    1    6 ar
     2    1    2 ar
     3    1   20 1
     4    2    3 ar
     5    2   21 1
     6    3    4 ar
     7    3    7 1
     8    4    5 ar
     9    4   22 1
    10    5    6 ar
    11    6   23 1
    12    7    8 2
    13    7   24 1
    14    8    9 1
    15    8   25 1
    16    9   14 1
    17    9   10 2
    18   10   11 1
    19   10   26 1
    20   11   12 1
    21   11   13 1
    22   13   18 ar
    23   13   14 ar
    24   14   15 ar
    25   15   16 ar
    26   15   27 1
    27   16   17 ar
    28   16   28 1
    29   17   18 ar
    30   17   19 1
    31   18   29 1
@<TRIPOS>MOLECULE
ZINC00006369
   29    31     0     0     0
SMALL
USER_CHARGES
6-fluoro-3-[2-(4-pyridyl)vinyl]-1H-indole
@<TRIPOS>ATOM
      1 C1          2.9462    3.8568   -0.0054 C.ar      1 <0>        -0.1722
      2 C2          1.5990    4.1435    0.0091 C.ar      1 <0>        -0.0412
      3 C3          0.6719    3.1039    0.0123 C.ar      1 <0>        -0.1017
      4 C4          1.1097    1.7692    0.0010 C.ar      1 <0>         0.1177
      5 C5          2.4740    1.4984   -0.0135 C.ar      1 <0>        -0.1655
      6 C6          3.3818    2.5375   -0.0171 C.ar      1 <0>         0.1218
      7 F1          4.7060    2.2698   -0.0316 F         1 <0>        -0.1357
      8 N1         -0.0111    0.9658    0.0074 N.pl3     1 <0>        -0.5832
      9 H1          0.0021   -0.0041    0.0020 H         1 <0>         0.4221
     10 C7         -1.1396    1.7292    0.0163 C.2       1 <0>         0.0823
     11 C8         -0.8013    3.0481    0.0261 C.2       1 <0>        -0.1510
     12 C9         -1.7242    4.1921    0.0415 C.2       1 <0>        -0.0319
     13 C10        -3.0536    3.9840    0.0530 C.2       1 <0>        -0.1468
     14 C11        -3.9776    5.1295    0.0684 C.ar      1 <0>         0.0003
     15 C12        -3.4942    6.4462    0.0773 C.ar      1 <0>        -0.1764
     16 C13        -4.3959    7.4881    0.0874 C.ar      1 <0>         0.1035
     17 N2         -5.6962    7.2599    0.0985 N.ar      1 <0>        -0.4932
     18 C14        -6.1943    6.0373    0.0953 C.ar      1 <0>         0.1020
     19 C15        -5.3669    4.9356    0.0806 C.ar      1 <0>        -0.1704
     20 H2          3.6670    4.6611   -0.0079 H         1 <0>         0.1397
     21 H3          1.2630    5.1699    0.0174 H         1 <0>         0.1356
     22 H4          2.8223    0.4761   -0.0220 H         1 <0>         0.1352
     23 H5         -2.1494    1.3462    0.0182 H         1 <0>         0.1789
     24 H6         -1.3352    5.1996    0.0436 H         1 <0>         0.1245
     25 H7         -3.4425    2.9765    0.0510 H         1 <0>         0.1225
     26 H8         -2.4318    6.6405    0.0725 H         1 <0>         0.1358
     27 H9         -4.0339    8.5056    0.0902 H         1 <0>         0.1559
     28 H10        -7.2653    5.8987    0.1048 H         1 <0>         0.1558
     29 H11        -5.7814    3.9383    0.0781 H         1 <0>         0.1355
@<TRIPOS>BOND
     1    1    6 ar
     2    1    2 ar
     3    1   20 1
     4    2    3 ar
     5    2   21 1
     6    3   11 1
     7    3    4 ar
     8    4    5 ar
     9    4    8 1
    10    5    6 ar
    11    5   22 1
    12    6    7 1
    13    8    9 1
    14    8   10 1
    15   10   11 2
    16   10   23 1
    17   11   12 1
    18   12   13 2
    19   12   24 1
    20   13   14 1
    21   13   25 1
    22   14   19 ar
    23   14   15 ar
    24   15   16 ar
    25   15   26 1
    26   16   17 ar
    27   16   27 1
    28   17   18 ar
    29   18   19 ar
    30   18   28 1
    31   19   29 1
