@<TRIPOS>MOLECULE
ZINC72108665
   24    26     0     0     0
SMALL
USER_CHARGES

@<TRIPOS>ATOM
      1 C1         -0.0168    1.3851    0.0097 C.ar      1 <0>        -0.1843
      2 C2          1.1631    2.0960    0.0022 C.ar      1 <0>        -0.0316
      3 C3          2.3785    1.4161   -0.0131 C.ar      1 <0>        -0.1048
      4 C4          2.4005    0.0117   -0.0208 C.ar      1 <0>         0.1182
      5 C5          1.1994   -0.6898   -0.0131 C.ar      1 <0>        -0.1722
      6 C6          0.0021   -0.0041    0.0020 C.ar      1 <0>         0.1143
      7 F1         -1.1621   -0.6895    0.0095 F         1 <0>        -0.1427
      8 N1          3.7223   -0.3819   -0.0356 N.pl3     1 <0>        -0.5874
      9 H1          4.0261   -1.3030   -0.0438 H         1 <0>         0.4160
     10 C7          4.5397    0.7067   -0.0375 C.2       1 <0>         0.0437
     11 C8          3.7897    1.8442   -0.0243 C.2       1 <0>        -0.1059
     12 C9          4.2886    3.2254   -0.0220 C.2       1 <0>        -0.1000
     13 C10         5.6158    3.4627   -0.0334 C.2       1 <0>        -0.0189
     14 C11         6.1139    4.8417   -0.0311 C.2       1 <0>         0.0662
     15 N2          5.3788    5.9604   -0.0127 N.2       1 <0>        -0.3674
     16 N3          6.1947    6.9586   -0.0177 N.2       1 <0>        -0.1940
     17 N4          7.4047    6.5215   -0.0384 N.2       1 <0>        -0.1936
     18 N5          7.3944    5.2324   -0.0413 N.2       1 <0>        -0.3732
     19 H2         -0.9605    1.9099    0.0260 H         1 <0>         0.1347
     20 H3          1.1458    3.1758    0.0078 H         1 <0>         0.1375
     21 H4          1.2040   -1.7698   -0.0194 H         1 <0>         0.1292
     22 H5          5.6192    0.6737   -0.0475 H         1 <0>         0.1768
     23 H6          3.5924    4.0510   -0.0113 H         1 <0>         0.1257
     24 H7          6.3120    2.6371   -0.0441 H         1 <0>         0.1135
@<TRIPOS>BOND
     1    1    6 ar
     2    1    2 ar
     3    1   19 1
     4    2    3 ar
     5    2   20 1
     6    3   11 1
     7    3    4 ar
     8    4    5 ar
     9    4    8 1
    10    5    6 ar
    11    5   21 1
    12    6    7 1
    13    8    9 1
    14    8   10 1
    15   10   11 2
    16   10   22 1
    17   11   12 1
    18   12   13 2
    19   12   23 1
    20   13   14 1
    21   13   24 1
    22   14   18 2
    23   14   15 1
    24   15   16 1
    25   16   17 2
    26   17   18 1
@<TRIPOS>MOLECULE
ZINC20269234
   22    23     0     0     0
SMALL
USER_CHARGES
(E)-3-(6-fluoro-1H-indol-3-yl)prop-2-enoic acid
@<TRIPOS>ATOM
      1 C1          2.9521    3.8523   -0.0068 C.ar      1 <0>        -0.1843
      2 C2          1.6048    4.1410    0.0083 C.ar      1 <0>        -0.0340
      3 C3          0.6769    3.1034    0.0123 C.ar      1 <0>        -0.1051
      4 C4          1.1117    1.7683    0.0009 C.ar      1 <0>         0.1083
      5 C5          2.4751    1.4949   -0.0136 C.ar      1 <0>        -0.1701
      6 C6          3.3852    2.5326   -0.0185 C.ar      1 <0>         0.1110
      7 F1          4.7088    2.2623   -0.0337 F         1 <0>        -0.1435
      8 N1         -0.0111    0.9658    0.0074 N.pl3     1 <0>        -0.5954
      9 H1          0.0954   -0.1290    0.0050 H         1 <0>         0.4417
     10 C7         -1.1353    1.7241    0.0163 C.2       1 <0>         0.0674
     11 C8         -0.7977    3.0486    0.0261 C.2       1 <0>        -0.1262
     12 C9         -1.7166    4.1869    0.0409 C.2       1 <0>        -0.0680
     13 C10        -3.0561    3.9768    0.0526 C.2       1 <0>        -0.1675
     14 C11        -3.9432    5.0757    0.0670 C.2       1 <0>         0.4721
     15 O1         -3.5053    6.2113    0.0689 O.co2     1 <0>        -0.6417
     16 O2         -5.2768    4.8665    0.0786 O.co2     1 <0>        -0.7715
     17 H2          3.6742    4.6554   -0.0099 H         1 <0>         0.1340
     18 H3          1.2702    5.1678    0.0167 H         1 <0>         0.1362
     19 H4          2.8214    0.4720   -0.0221 H         1 <0>         0.1291
     20 H5         -2.1446    1.3396    0.0180 H         1 <0>         0.1770
     21 H6         -1.3208    5.2132    0.0425 H         1 <0>         0.1295
     22 H7         -3.4519    2.9505    0.0509 H         1 <0>         0.1010
@<TRIPOS>BOND
     1    1    6 ar
     2    1    2 ar
     3    1   17 1
     4    2    3 ar
     5    2   18 1
     6    3   11 1
     7    3    4 ar
     8    4    5 ar
     9    4    8 1
    10    5    6 ar
    11    5   19 1
    12    6    7 1
    13    8    9 1
    14    8   10 1
    15   10   11 2
    16   10   20 1
    17   11   12 1
    18   12   13 2
    19   12   21 1
    20   13   14 1
    21   13   22 1
    22   14   15 2
    23   14   16 1
@<TRIPOS>MOLECULE
ZINC00019965
   29    31     0     0     0
SMALL
USER_CHARGES
6-fluoro-3-[2-(3-pyridyl)vinyl]-1H-indole
@<TRIPOS>ATOM
      1 C1          7.9031    6.4341   -0.0369 C.ar      1 <0>        -0.1679
      2 C2          7.4870    5.1147   -0.0401 C.ar      1 <0>        -0.0721
      3 C3          6.1102    4.8528   -0.0284 C.ar      1 <0>        -0.0969
      4 C4          5.2191    5.9297   -0.0194 C.ar      1 <0>         0.0999
      5 N1          5.6664    7.1679   -0.0120 N.ar      1 <0>        -0.4812
      6 C5          6.9569    7.4431   -0.0223 C.ar      1 <0>         0.0912
      7 C6          5.6109    3.4667   -0.0317 C.2       1 <0>        -0.1331
      8 C7          4.2877    3.2289   -0.0204 C.2       1 <0>        -0.0460
      9 C8          3.7891    1.8449   -0.0237 C.2       1 <0>        -0.1454
     10 C9          4.5396    0.7100   -0.0371 C.2       1 <0>         0.0773
     11 N2          3.7219   -0.3816   -0.0358 N.pl3     1 <0>        -0.5845
     12 H1          4.0264   -1.3025   -0.0441 H         1 <0>         0.4215
     13 C10         2.4005    0.0117   -0.0214 C.ar      1 <0>         0.1186
     14 C11         2.3787    1.4163   -0.0131 C.ar      1 <0>        -0.1030
     15 C12         1.1629    2.0962    0.0022 C.ar      1 <0>        -0.0402
     16 C13        -0.0168    1.3853    0.0097 C.ar      1 <0>        -0.1733
     17 C14         0.0021   -0.0041    0.0020 C.ar      1 <0>         0.1219
     18 C15         1.1993   -0.6898   -0.0136 C.ar      1 <0>        -0.1666
     19 F1         -1.1621   -0.6895    0.0095 F         1 <0>        -0.1361
     20 H2          8.9561    6.6740   -0.0460 H         1 <0>         0.1364
     21 H3          8.2045    4.3075   -0.0510 H         1 <0>         0.1353
     22 H4          4.1551    5.7445   -0.0148 H         1 <0>         0.1566
     23 H5          7.2798    8.4736   -0.0198 H         1 <0>         0.1557
     24 H6          6.3077    2.6417   -0.0432 H         1 <0>         0.1203
     25 H7          3.5908    4.0539   -0.0088 H         1 <0>         0.1237
     26 H8          5.6191    0.6784   -0.0475 H         1 <0>         0.1779
     27 H9          1.1453    3.1761    0.0079 H         1 <0>         0.1360
     28 H10        -0.9607    1.9101    0.0170 H         1 <0>         0.1395
     29 H11         1.2038   -1.7698   -0.0194 H         1 <0>         0.1347
@<TRIPOS>BOND
     1    1    6 ar
     2    1    2 ar
     3    1   20 1
     4    2    3 ar
     5    2   21 1
     6    3    4 ar
     7    3    7 1
     8    4    5 ar
     9    4   22 1
    10    5    6 ar
    11    6   23 1
    12    7    8 2
    13    7   24 1
    14    8    9 1
    15    8   25 1
    16    9   14 1
    17    9   10 2
    18   10   11 1
    19   10   26 1
    20   11   12 1
    21   11   13 1
    22   13   18 ar
    23   13   14 ar
    24   14   15 ar
    25   15   16 ar
    26   15   27 1
    27   16   17 ar
    28   16   28 1
    29   17   18 ar
    30   17   19 1
    31   18   29 1
@<TRIPOS>MOLECULE
ZINC00006369
   29    31     0     0     0
SMALL
USER_CHARGES
6-fluoro-3-[2-(4-pyridyl)vinyl]-1H-indole
@<TRIPOS>ATOM
      1 C1          2.9462    3.8568   -0.0054 C.ar      1 <0>        -0.1722
      2 C2          1.5990    4.1435    0.0091 C.ar      1 <0>        -0.0412
      3 C3          0.6719    3.1039    0.0123 C.ar      1 <0>        -0.1017
      4 C4          1.1097    1.7692    0.0010 C.ar      1 <0>         0.1177
      5 C5          2.4740    1.4984   -0.0135 C.ar      1 <0>        -0.1655
      6 C6          3.3818    2.5375   -0.0171 C.ar      1 <0>         0.1218
      7 F1          4.7060    2.2698   -0.0316 F         1 <0>        -0.1357
      8 N1         -0.0111    0.9658    0.0074 N.pl3     1 <0>        -0.5832
      9 H1          0.0021   -0.0041    0.0020 H         1 <0>         0.4221
     10 C7         -1.1396    1.7292    0.0163 C.2       1 <0>         0.0823
     11 C8         -0.8013    3.0481    0.0261 C.2       1 <0>        -0.1510
     12 C9         -1.7242    4.1921    0.0415 C.2       1 <0>        -0.0319
     13 C10        -3.0536    3.9840    0.0530 C.2       1 <0>        -0.1468
     14 C11        -3.9776    5.1295    0.0684 C.ar      1 <0>         0.0003
     15 C12        -3.4942    6.4462    0.0773 C.ar      1 <0>        -0.1764
     16 C13        -4.3959    7.4881    0.0874 C.ar      1 <0>         0.1035
     17 N2         -5.6962    7.2599    0.0985 N.ar      1 <0>        -0.4932
     18 C14        -6.1943    6.0373    0.0953 C.ar      1 <0>         0.1020
     19 C15        -5.3669    4.9356    0.0806 C.ar      1 <0>        -0.1704
     20 H2          3.6670    4.6611   -0.0079 H         1 <0>         0.1397
     21 H3          1.2630    5.1699    0.0174 H         1 <0>         0.1356
     22 H4          2.8223    0.4761   -0.0220 H         1 <0>         0.1352
     23 H5         -2.1494    1.3462    0.0182 H         1 <0>         0.1789
     24 H6         -1.3352    5.1996    0.0436 H         1 <0>         0.1245
     25 H7         -3.4425    2.9765    0.0510 H         1 <0>         0.1225
     26 H8         -2.4318    6.6405    0.0725 H         1 <0>         0.1358
     27 H9         -4.0339    8.5056    0.0902 H         1 <0>         0.1559
     28 H10        -7.2653    5.8987    0.1048 H         1 <0>         0.1558
     29 H11        -5.7814    3.9383    0.0781 H         1 <0>         0.1355
@<TRIPOS>BOND
     1    1    6 ar
     2    1    2 ar
     3    1   20 1
     4    2    3 ar
     5    2   21 1
     6    3   11 1
     7    3    4 ar
     8    4    5 ar
     9    4    8 1
    10    5    6 ar
    11    5   22 1
    12    6    7 1
    13    8    9 1
    14    8   10 1
    15   10   11 2
    16   10   23 1
    17   11   12 1
    18   12   13 2
    19   12   24 1
    20   13   14 1
    21   13   25 1
    22   14   19 ar
    23   14   15 ar
    24   15   16 ar
    25   15   26 1
    26   16   17 ar
    27   16   27 1
    28   17   18 ar
    29   18   19 ar
    30   18   28 1
    31   19   29 1
@<TRIPOS>MOLECULE
ZINC00120515
   20    21     0     0     0
SMALL
USER_CHARGES
5-aminoquinolin-8-ol
@<TRIPOS>ATOM
      1 C1          1.1207    5.9107    0.0209 C.ar      1 <0>        -0.1847
      2 C2         -0.0828    5.2625    0.0293 C.ar      1 <0>        -0.0499
      3 C3         -0.0795    3.8574    0.0226 C.ar      1 <0>        -0.1398
      4 C4         -1.2824    3.1208    0.0301 C.ar      1 <0>         0.2340
      5 C5         -1.2337    1.7434    0.0174 C.ar      1 <0>        -0.2054
      6 C6         -0.0126    1.0758    0.0080 C.ar      1 <0>        -0.0720
      7 C7          1.1671    1.7630    0.0004 C.ar      1 <0>         0.0658
      8 C8          1.1605    3.1723    0.0075 C.ar      1 <0>         0.1426
      9 N1          2.3029    3.8662   -0.0001 N.ar      1 <0>        -0.4667
     10 C9          2.3041    5.1775    0.0061 C.ar      1 <0>         0.1372
     11 O1          2.3476    1.0881   -0.0145 O.3       1 <0>        -0.4809
     12 N2         -2.5118    3.7813    0.0446 N.pl3     1 <0>        -0.8668
     13 H1          1.1534    6.9902    0.0253 H         1 <0>         0.1390
     14 H2         -1.0106    5.8151    0.0412 H         1 <0>         0.1334
     15 H3         -2.1528    1.1762    0.0191 H         1 <0>         0.1301
     16 H4          0.0021   -0.0041    0.0020 H         1 <0>         0.1359
     17 H5          3.2479    5.7025   -0.0001 H         1 <0>         0.1612
     18 H6          2.6806    0.8977   -0.9022 H         1 <0>         0.3835
     19 H7         -2.5414    4.7509    0.0494 H         1 <0>         0.3987
     20 H8         -3.3366    3.2708    0.0497 H         1 <0>         0.4049
@<TRIPOS>BOND
     1    1   10 ar
     2    1    2 ar
     3    1   13 1
     4    2    3 ar
     5    2   14 1
     6    3    8 ar
     7    3    4 ar
     8    4    5 ar
     9    4   12 1
    10    5    6 ar
    11    5   15 1
    12    6    7 ar
    13    6   16 1
    14    7    8 ar
    15    7   11 1
    16    8    9 ar
    17    9   10 ar
    18   10   17 1
    19   11   18 1
    20   12   19 1
    21   12   20 1
