@<TRIPOS>MOLECULE
ZINC03793091
   63    66     0     0     0
SMALL
USER_CHARGES
3-[2-[[6-[4-(pentylcarbamoyl)oxazol-2-yl]-7-oxabicyclo[2.2.1]hept-5-yl]methyl]phenyl]propanoic acid
@<TRIPOS>ATOM
      1 C1         -3.6721   -7.8847   -0.0093 C.3       1 <0>        -0.1525
      2 C2         -2.4538   -6.9591   -0.0152 C.3       1 <0>        -0.1257
      3 C3         -2.9204   -5.5020   -0.0026 C.3       1 <0>        -0.1154
      4 C4         -1.7021   -4.5764   -0.0085 C.3       1 <0>        -0.1349
      5 C5         -2.1687   -3.1193    0.0041 C.3       1 <0>         0.1200
      6 N1         -1.0022   -2.2330   -0.0015 N.am      1 <0>        -0.7107
      7 C6         -1.1717   -0.8959    0.0077 C.2       1 <0>         0.6072
      8 O1         -2.2930   -0.4252    0.0207 O.2       1 <0>        -0.5426
      9 C7          0.0021   -0.0041    0.0020 C.2       1 <0>        -0.0702
     10 C8         -0.0164    1.3567    0.0095 C.2       1 <0>         0.0082
     11 O2          1.2624    1.7655   -0.0005 O.3       1 <0>        -0.1802
     12 C9          2.0494    0.6805   -0.0139 C.2       1 <0>         0.2165
     13 N2          1.3078   -0.3865   -0.0125 N.2       1 <0>        -0.4527
     14 C10         3.5563    0.6957   -0.0277 C.3       1 <0>        -0.0220
     15 H1          3.9509   -0.3196   -0.0680 H         1 <0>         0.1300
     16 C11         4.1121    1.4551    1.2142 C.3       1 <0>         0.0723
     17 H2          3.5880    1.2657    2.1510 H         1 <0>         0.1328
     18 C12         5.6408    1.1538    1.2311 C.3       1 <0>        -0.1463
     19 C13         6.1705    2.0005    0.0457 C.3       1 <0>        -0.1507
     20 C14         4.8776    2.6786   -0.4987 C.3       1 <0>         0.0699
     21 H3          5.0355    3.5874   -1.0794 H         1 <0>         0.1351
     22 C15         4.0860    1.5424   -1.2131 C.3       1 <0>        -0.1008
     23 H4          4.7470    0.9500   -1.8457 H         1 <0>         0.1020
     24 C16         2.9266    2.1191   -2.0280 C.3       1 <0>        -0.0816
     25 C17         3.4699    2.8323   -3.2393 C.ar      1 <0>        -0.0793
     26 C18         3.6864    4.1972   -3.1987 C.ar      1 <0>        -0.1169
     27 C19         4.1851    4.8512   -4.3095 C.ar      1 <0>        -0.1326
     28 C20         4.4674    4.1405   -5.4613 C.ar      1 <0>        -0.1220
     29 C21         4.2510    2.7760   -5.5019 C.ar      1 <0>        -0.1177
     30 C22         3.7571    2.1210   -4.3890 C.ar      1 <0>        -0.0620
     31 C23         3.5270    0.6322   -4.4313 C.3       1 <0>        -0.0661
     32 C24         2.0683    0.3518   -4.7979 C.3       1 <0>        -0.1485
     33 C25         1.8382   -1.1369   -4.8402 C.2       1 <0>         0.4613
     34 O3          2.7476   -1.8958   -4.6016 O.co2     1 <0>        -0.6404
     35 O4          4.0990    2.8389    0.7323 O.3       1 <0>        -0.3627
     36 H5         -4.2640   -7.7005    0.8872 H         1 <0>         0.0519
     37 H6         -4.2804   -7.6903   -0.8926 H         1 <0>         0.0543
     38 H7         -3.3397   -8.9227   -0.0183 H         1 <0>         0.0522
     39 H8         -1.8619   -7.1433   -0.9117 H         1 <0>         0.0645
     40 H9         -1.8455   -7.1535    0.8681 H         1 <0>         0.0605
     41 H10        -3.5123   -5.3178    0.8939 H         1 <0>         0.0629
     42 H11        -3.5287   -5.3076   -0.8859 H         1 <0>         0.0667
     43 H12        -1.1102   -4.7606   -0.9050 H         1 <0>         0.0758
     44 H13        -1.0938   -4.7708    0.8749 H         1 <0>         0.0684
     45 H14        -2.7606   -2.9351    0.9007 H         1 <0>         0.0670
     46 H15        -2.7770   -2.9249   -0.8792 H         1 <0>         0.0709
     47 H16        -0.1079   -2.6084   -0.0119 H         1 <0>         0.4115
     48 H17        -0.8929    1.9876    0.0173 H         1 <0>         0.2279
     49 H18         6.0885    1.4807    2.1696 H         1 <0>         0.0787
     50 H19         5.8270    0.0927    1.0650 H         1 <0>         0.0819
     51 H20         6.8821    2.7492    0.3936 H         1 <0>         0.0753
     52 H21         6.6237    1.3621   -0.7127 H         1 <0>         0.0810
     53 H22         2.2691    1.3104   -2.3470 H         1 <0>         0.0804
     54 H23         2.3652    2.8228   -1.4135 H         1 <0>         0.0852
     55 H24         3.4662    4.7523   -2.2988 H         1 <0>         0.1182
     56 H25         4.3545    5.9173   -4.2776 H         1 <0>         0.1159
     57 H26         4.8574    4.6515   -6.3291 H         1 <0>         0.1163
     58 H27         4.4720    2.2208   -6.4016 H         1 <0>         0.1203
     59 H28         4.1820    0.1844   -5.1787 H         1 <0>         0.0705
     60 H29         3.7449    0.2030   -3.4533 H         1 <0>         0.0726
     61 H30         1.4133    0.7997   -4.0505 H         1 <0>         0.0588
     62 H31         1.8505    0.7811   -5.7759 H         1 <0>         0.0624
     63 O5          0.6230   -1.6198   -5.1429 O.co2     1 <0>        -0.7732
@<TRIPOS>BOND
     1    1    2 1
     2    1   36 1
     3    1   37 1
     4    1   38 1
     5    2    3 1
     6    2   39 1
     7    2   40 1
     8    3    4 1
     9    3   41 1
    10    3   42 1
    11    4    5 1
    12    4   43 1
    13    4   44 1
    14    5    6 1
    15    5   45 1
    16    5   46 1
    17    6    7 am
    18    6   47 1
    19    7    8 2
    20    7    9 1
    21    9   13 1
    22    9   10 2
    23   10   11 1
    24   10   48 1
    25   11   12 1
    26   12   13 2
    27   12   14 1
    28   14   15 1
    29   14   22 1
    30   14   16 1
    31   16   17 1
    32   16   35 1
    33   16   18 1
    34   18   19 1
    35   18   49 1
    36   18   50 1
    37   19   20 1
    38   19   51 1
    39   19   52 1
    40   20   21 1
    41   20   22 1
    42   20   35 1
    43   22   23 1
    44   22   24 1
    45   24   25 1
    46   24   53 1
    47   24   54 1
    48   25   30 ar
    49   25   26 ar
    50   26   27 ar
    51   26   55 1
    52   27   28 ar
    53   27   56 1
    54   28   29 ar
    55   28   57 1
    56   29   30 ar
    57   29   58 1
    58   30   31 1
    59   31   32 1
    60   31   59 1
    61   31   60 1
    62   32   33 1
    63   32   61 1
    64   32   62 1
    65   33   34 2
    66   33   63 1
