@<TRIPOS>MOLECULE
ZINC02039265
   22    22     0     0     0
SMALL
USER_CHARGES
2-phenoxyethanamine
@<TRIPOS>ATOM
      1 C1         -0.0126    1.0758    0.0080 C.ar      1 <0>        -0.1394
      2 C2         -1.2199    1.7496    0.0174 C.ar      1 <0>        -0.0787
      3 C3         -1.2413    3.1308    0.0307 C.ar      1 <0>        -0.2032
      4 C4         -0.0501    3.8419    0.0227 C.ar      1 <0>         0.1089
      5 C5          1.1599    3.1635    0.0075 C.ar      1 <0>        -0.1422
      6 C6          1.1760    1.7822    0.0004 C.ar      1 <0>        -0.0772
      7 O1         -0.0685    5.2008    0.0293 O.3       1 <0>        -0.3315
      8 C7         -1.3504    5.8322    0.0450 C.3       1 <0>         0.0208
      9 C8         -1.1705    7.3515    0.0503 C.3       1 <0>         0.0073
     10 H1          0.0021   -0.0041    0.0020 H         1 <0>         0.1325
     11 H2         -2.1470    1.1956    0.0184 H         1 <0>         0.1320
     12 H3         -2.1846    3.6567    0.0422 H         1 <0>         0.1272
     13 H4          2.0886    3.7149    0.0009 H         1 <0>         0.1332
     14 H5          2.1177    1.2536   -0.0114 H         1 <0>         0.1374
     15 H6         -1.9122    5.5359   -0.8409 H         1 <0>         0.0876
     16 H7         -1.8945    5.5275    0.9390 H         1 <0>         0.1092
     17 H8         -2.1435    7.8322    0.1518 H         1 <0>         0.1545
     18 H9         -0.5342    7.6391    0.8872 H         1 <0>         0.1432
     19 H10        -1.0828    7.4634   -2.0035 H         1 <0>         0.4371
     20 H11        -0.4146    8.7753   -1.2302 H         1 <0>         0.4422
     21 N1         -0.5221    7.7626   -1.2074 N.4       1 <0>        -0.6470
     22 H12         0.4051    7.3258   -1.2676 H         1 <0>         0.4464
@<TRIPOS>BOND
     1    1    6 ar
     2    1    2 ar
     3    1   10 1
     4    2    3 ar
     5    2   11 1
     6    3    4 ar
     7    3   12 1
     8    4    5 ar
     9    4    7 1
    10    5    6 ar
    11    5   13 1
    12    6   14 1
    13    7    8 1
    14    8    9 1
    15    8   15 1
    16    8   16 1
    17    9   17 1
    18    9   18 1
    19    9   21 1
    20   19   21 1
    21   20   21 1
    22   21   22 1
