@<TRIPOS>MOLECULE
ZINC14852066
   48    49     0     0     0
SMALL
USER_CHARGES

@<TRIPOS>ATOM
      1 C1         -0.0187    1.5258    0.0104 C.3       1 <0>        -0.1902
      2 C2          0.0021   -0.0041    0.0020 C.3       1 <0>         0.1099
      3 H1         -1.0213   -0.3792    0.0098 H         1 <0>         0.1225
      4 C3          0.7117   -0.4941   -1.2603 C.3       1 <0>        -0.1315
      5 C4          1.3803    0.6570   -1.9583 C.2       1 <0>        -0.0692
      6 C5          2.7017    0.8181   -1.8493 C.2       1 <0>        -0.2242
      7 C6          3.3680    1.9252   -2.5435 C.2       1 <0>         0.3696
      8 O1          2.7115    2.7060   -3.2003 O.2       1 <0>        -0.4479
      9 C7          4.8559    2.0998   -2.4470 C.3       1 <0>         0.0704
     10 H2          5.3262    1.1283   -2.2950 H         1 <0>         0.0907
     11 C8          5.1895    3.0179   -1.2680 C.3       1 <0>         0.1256
     12 H3          5.7479    3.8823   -1.6273 H         1 <0>         0.0798
     13 C9          6.0360    2.2514   -0.2480 C.3       1 <0>        -0.1248
     14 C10         5.2825    2.1507    1.0538 C.2       1 <0>        -0.1283
     15 C11         4.6042    1.0526    1.3362 C.2       1 <0>        -0.1087
     16 C12         3.8388    0.8902    2.5804 C.ar      1 <0>         0.0721
     17 C13         4.3861    1.3164    3.7898 C.ar      1 <0>        -0.1728
     18 C14         3.6817    1.1455    4.9738 C.ar      1 <0>         0.1859
     19 C15         2.4255    0.5534    4.9682 C.ar      1 <0>        -0.2571
     20 C16         1.8630    0.1324    3.7761 C.ar      1 <0>         0.2113
     21 C17         2.5606    0.2946    2.5690 C.ar      1 <0>        -0.2000
     22 C18         1.9781   -0.1421    1.2956 C.2       1 <0>         0.5268
     23 O2          2.6973   -0.2041    0.3174 O.2       1 <0>        -0.4835
     24 O3          0.6878   -0.4748    1.1642 O.3       1 <0>        -0.3491
     25 O4          0.6328   -0.4392    3.7740 O.3       1 <0>        -0.4807
     26 O5          4.2252    1.5601    6.1463 O.3       1 <0>        -0.3078
     27 C19         3.4497    1.3557    7.3291 C.3       1 <0>         0.0221
     28 O6          3.9788    3.4568   -0.6486 O.3       1 <0>        -0.5534
     29 O7          5.3461    2.6819   -3.6565 O.3       1 <0>        -0.5470
     30 H4          1.0039    1.9031    0.0027 H         1 <0>         0.0708
     31 H5         -0.5459    1.8868   -0.8726 H         1 <0>         0.0797
     32 H6         -0.5289    1.8773    0.9072 H         1 <0>         0.0648
     33 H7          1.4619   -1.2365   -0.9879 H         1 <0>         0.1008
     34 H8         -0.0172   -0.9492   -1.9309 H         1 <0>         0.0831
     35 H9          0.7985    1.3591   -2.5388 H         1 <0>         0.1164
     36 H10         3.2734    0.1369   -1.2412 H         1 <0>         0.1643
     37 H11         6.2432    1.2504   -0.6265 H         1 <0>         0.0830
     38 H12         6.9752    2.7800   -0.0845 H         1 <0>         0.0857
     39 H13         5.2989    2.9862    1.7379 H         1 <0>         0.1128
     40 H14         4.6552    0.2260    0.6308 H         1 <0>         0.1420
     41 H15         5.3612    1.7805    3.8056 H         1 <0>         0.1441
     42 H16         1.8873    0.4210    5.8951 H         1 <0>         0.1447
     43 H17        -0.0933    0.1904    3.6668 H         1 <0>         0.4007
     44 H18         2.5035    1.8894    7.2399 H         1 <0>         0.0607
     45 H19         3.2556    0.2907    7.4566 H         1 <0>         0.0615
     46 H20         3.9986    1.7309    8.1928 H         1 <0>         0.1065
     47 H21         4.1144    4.0435    0.1081 H         1 <0>         0.3819
     48 H22         5.1714    2.1527   -4.4467 H         1 <0>         0.3861
@<TRIPOS>BOND
     1    1    2 1
     2    1   30 1
     3    1   31 1
     4    1   32 1
     5    2    3 1
     6    2   24 1
     7    2    4 1
     8    4    5 1
     9    4   33 1
    10    4   34 1
    11    5    6 2
    12    5   35 1
    13    6    7 1
    14    6   36 1
    15    7    8 2
    16    7    9 1
    17    9   10 1
    18    9   11 1
    19    9   29 1
    20   11   12 1
    21   11   13 1
    22   11   28 1
    23   13   14 1
    24   13   37 1
    25   13   38 1
    26   14   15 2
    27   14   39 1
    28   15   16 1
    29   15   40 1
    30   16   21 ar
    31   16   17 ar
    32   17   18 ar
    33   17   41 1
    34   18   19 ar
    35   18   26 1
    36   19   20 ar
    37   19   42 1
    38   20   21 ar
    39   20   25 1
    40   21   22 1
    41   22   23 2
    42   22   24 1
    43   25   43 1
    44   26   27 1
    45   27   44 1
    46   27   45 1
    47   27   46 1
    48   28   47 1
    49   29   48 1
@<TRIPOS>MOLECULE
ZINC14852066
   48    49     0     0     0
SMALL
USER_CHARGES

@<TRIPOS>ATOM
      1 C1         -0.0187    1.5258    0.0104 C.3       1 <0>        -0.1782
      2 C2          0.0021   -0.0041    0.0020 C.3       1 <0>         0.1059
      3 H1         -1.0202   -0.3821    0.0097 H         1 <0>         0.1065
      4 C3          0.7214   -0.4993   -1.2571 C.3       1 <0>        -0.2337
      5 C4          0.9926    0.6676   -2.1719 C.2       1 <0>        -0.0239
      6 C5          2.2327    0.8804   -2.6274 C.2       1 <0>        -0.2524
      7 C6          3.3216   -0.0106   -2.2391 C.2       1 <0>         0.3565
      8 O1          3.0972   -0.9579   -1.5151 O.2       1 <0>        -0.3921
      9 C7          4.7243    0.2403   -2.7329 C.3       1 <0>         0.0775
     10 H2          4.6903    0.5739   -3.7700 H         1 <0>         0.0902
     11 C8          5.5353   -1.0528   -2.6394 C.3       1 <0>         0.1183
     12 H3          4.8562   -1.9036   -2.5842 H         1 <0>         0.0767
     13 C9          6.4150   -1.0217   -1.3875 C.3       1 <0>        -0.1211
     14 C10         5.7492   -1.8245   -0.2972 C.2       1 <0>        -0.1407
     15 C11         4.7118   -1.3199    0.3472 C.2       1 <0>        -0.1201
     16 C12         4.0408   -2.0709    1.4214 C.ar      1 <0>         0.0738
     17 C13         4.7005   -3.0796    2.1095 C.ar      1 <0>        -0.1758
     18 C14         4.0463   -3.7677    3.1229 C.ar      1 <0>         0.1867
     19 C15         2.7421   -3.4458    3.4552 C.ar      1 <0>        -0.2633
     20 C16         2.0660   -2.4427    2.7907 C.ar      1 <0>         0.2133
     21 C17         2.7063   -1.7502    1.7571 C.ar      1 <0>        -0.2009
     22 C18         2.0150   -0.7034    1.0028 C.2       1 <0>         0.5163
     23 O2          2.6441   -0.0218    0.2169 O.2       1 <0>        -0.4694
     24 O3          0.6975   -0.4800    1.1622 O.3       1 <0>        -0.3396
     25 O4          0.7918   -2.1312    3.1363 O.3       1 <0>        -0.4793
     26 O5          4.6885   -4.7601    3.7898 O.3       1 <0>        -0.3082
     27 C19         3.9578   -5.4273    4.8208 C.3       1 <0>         0.0226
     28 O6          6.3629   -1.1796   -3.7975 O.3       1 <0>        -0.5677
     29 O7          5.3395    1.2482   -1.9281 O.3       1 <0>        -0.5329
     30 H4          1.0039    1.9031    0.0027 H         1 <0>         0.0702
     31 H5         -0.5459    1.8868   -0.8726 H         1 <0>         0.0718
     32 H6         -0.5289    1.8773    0.9072 H         1 <0>         0.0632
     33 H7          1.6646   -0.9678   -0.9763 H         1 <0>         0.1854
     34 H8          0.0935   -1.2264   -1.7721 H         1 <0>         0.0805
     35 H9          0.1918    1.3244   -2.4742 H         1 <0>         0.1212
     36 H10         2.4263    1.7062   -3.2931 H         1 <0>         0.1283
     37 H11         7.3892   -1.4544   -1.6156 H         1 <0>         0.0742
     38 H12         6.5412    0.0090   -1.0560 H         1 <0>         0.1072
     39 H13         6.1067   -2.8144   -0.0623 H         1 <0>         0.1057
     40 H14         4.3547   -0.3298    0.0969 H         1 <0>         0.1711
     41 H15         5.7205   -3.3292    1.8570 H         1 <0>         0.1430
     42 H16         2.2456   -3.9881    4.2463 H         1 <0>         0.1411
     43 H17         0.7249   -1.4505    3.8198 H         1 <0>         0.3997
     44 H18         3.6630   -4.7055    5.5826 H         1 <0>         0.0602
     45 H19         3.0675   -5.8894    4.3943 H         1 <0>         0.0606
     46 H20         4.5854   -6.1958    5.2719 H         1 <0>         0.1057
     47 H21         6.9070   -1.9789   -3.8064 H         1 <0>         0.3845
     48 H22         4.8770    2.0973   -1.9394 H         1 <0>         0.3814
@<TRIPOS>BOND
     1    1    2 1
     2    1   30 1
     3    1   31 1
     4    1   32 1
     5    2    3 1
     6    2   24 1
     7    2    4 1
     8    4    5 1
     9    4   33 1
    10    4   34 1
    11    5    6 2
    12    5   35 1
    13    6    7 1
    14    6   36 1
    15    7    8 2
    16    7    9 1
    17    9   10 1
    18    9   11 1
    19    9   29 1
    20   11   12 1
    21   11   13 1
    22   11   28 1
    23   13   14 1
    24   13   37 1
    25   13   38 1
    26   14   15 2
    27   14   39 1
    28   15   16 1
    29   15   40 1
    30   16   21 ar
    31   16   17 ar
    32   17   18 ar
    33   17   41 1
    34   18   19 ar
    35   18   26 1
    36   19   20 ar
    37   19   42 1
    38   20   21 ar
    39   20   25 1
    40   21   22 1
    41   22   23 2
    42   22   24 1
    43   25   43 1
    44   26   27 1
    45   27   44 1
    46   27   45 1
    47   27   46 1
    48   28   47 1
    49   29   48 1
@<TRIPOS>MOLECULE
ZINC03814434
   62    69     0     0     0
SMALL
USER_CHARGES

@<TRIPOS>ATOM
      1 C1         -0.1295    1.5952   -0.2973 C.3       1 <0>        -0.1687
      2 C2         -0.0862    0.0696   -0.1900 C.3       1 <0>         0.3342
      3 C3          0.5692   -0.4501   -1.4637 C.3       1 <0>         0.0405
      4 H1          1.4796    0.1159   -1.6612 H         1 <0>         0.1372
      5 C4          0.9167   -1.9328   -1.2889 C.3       1 <0>        -0.0061
      6 H2          1.3963   -2.3075   -2.1932 H         1 <0>         0.1555
      7 C5          1.8785   -2.0596   -0.1021 C.3       1 <0>        -0.1827
      8 C6          1.2061   -1.5198    1.1541 C.3       1 <0>         0.2999
      9 H3          1.9797   -1.4243    1.9161 H         1 <0>         0.1550
     10 O1          0.6555   -0.2442    0.9666 O.3       1 <0>        -0.3234
     11 N1          0.2189   -2.4746    1.6600 N.pl3     1 <0>        -0.5366
     12 C7          0.4705   -3.5508    2.4739 C.ar      1 <0>         0.1469
     13 C8          1.6649   -4.0152    3.0240 C.ar      1 <0>        -0.1522
     14 C9          1.5948   -5.1456    3.8201 C.ar      1 <0>        -0.0582
     15 C10         0.4006   -5.7997    4.0696 C.ar      1 <0>        -0.1457
     16 C11        -0.7984   -5.3597    3.5358 C.ar      1 <0>        -0.0280
     17 C12        -0.7487   -4.2198    2.7307 C.ar      1 <0>        -0.1131
     18 C13        -1.7893   -3.4830    2.0197 C.ar      1 <0>         0.0276
     19 C14        -1.1442   -2.4197    1.3841 C.ar      1 <0>         0.0376
     20 C15        -1.8806   -1.5095    0.6175 C.ar      1 <0>         0.0894
     21 N2         -1.4718   -0.3951   -0.1095 N.pl3     1 <0>        -0.5183
     22 C16        -2.5611    0.1913   -0.7090 C.ar      1 <0>         0.1618
     23 C17        -2.6521    1.3277   -1.5118 C.ar      1 <0>        -0.1305
     24 C18        -3.9109    1.6745   -1.9733 C.ar      1 <0>        -0.0737
     25 C19        -5.0393    0.9368   -1.6616 C.ar      1 <0>        -0.1358
     26 C20        -4.9745   -0.1955   -0.8662 C.ar      1 <0>        -0.0503
     27 C21        -3.7147   -0.5596   -0.3919 C.ar      1 <0>        -0.1042
     28 C22        -3.2693   -1.6660    0.4845 C.ar      1 <0>        -0.0360
     29 C23        -3.9084   -2.7313    1.1102 C.ar      1 <0>        -0.0288
     30 C24        -3.1873   -3.6421    1.8754 C.ar      1 <0>        -0.1255
     31 C25        -4.1221   -4.6480    2.4030 C.2       1 <0>         0.5632
     32 O2         -3.8062   -5.5851    3.1110 O.2       1 <0>        -0.5106
     33 N3         -5.3744   -4.3851    1.9926 N.am      1 <0>        -0.7162
     34 C26        -5.3495   -3.1771    1.1601 C.3       1 <0>         0.1358
     35 N4         -0.3067   -2.7008   -1.0216 N.4       1 <0>        -0.5252
     36 C27         0.0145   -4.1336   -0.9773 C.3       1 <0>        -0.0497
     37 O3         -0.3340   -0.2979   -2.5607 O.3       1 <0>        -0.3614
     38 C28         0.3101   -0.0933   -3.8198 C.3       1 <0>         0.0162
     39 H4          0.8261    2.0094    0.0240 H         1 <0>         0.0984
     40 H5         -0.3202    1.8814   -1.3317 H         1 <0>         0.1036
     41 H6         -0.9255    1.9818    0.3392 H         1 <0>         0.0921
     42 H7          2.1370   -3.1081    0.0458 H         1 <0>         0.1233
     43 H8          2.7835   -1.4869   -0.3048 H         1 <0>         0.1455
     44 H9          2.6036   -3.5149    2.8368 H         1 <0>         0.1365
     45 H10         2.5026   -5.5304    4.2610 H         1 <0>         0.1359
     46 H11         0.4045   -6.6780    4.6980 H         1 <0>         0.1352
     47 H12        -1.7278   -5.8736    3.7323 H         1 <0>         0.1600
     48 H13        -1.7792    1.9122   -1.7624 H         1 <0>         0.1440
     49 H14        -4.0153    2.5500   -2.5970 H         1 <0>         0.1336
     50 H15        -5.9967    1.2527   -2.0488 H         1 <0>         0.1332
     51 H16        -5.8575   -0.7687   -0.6249 H         1 <0>         0.1415
     52 H17        -6.1628   -4.9065    2.2103 H         1 <0>         0.4348
     53 H18        -5.9671   -2.3994    1.6094 H         1 <0>         0.1115
     54 H19        -5.7060   -3.4063    0.1559 H         1 <0>         0.1103
     55 H20        -0.6958   -2.4158   -0.1353 H         1 <0>         0.4186
     56 H21         0.4349   -4.4415   -1.9347 H         1 <0>         0.1256
     57 H22         0.7403   -4.3189   -0.1854 H         1 <0>         0.1191
     58 H23        -0.8932   -4.7035   -0.7789 H         1 <0>         0.1256
     59 H24         0.9168    0.8112   -3.7748 H         1 <0>         0.0633
     60 H25         0.9482   -0.9479   -4.0446 H         1 <0>         0.0514
     61 H26        -0.4433    0.0130   -4.6003 H         1 <0>         0.1100
     62 H27        -0.9785   -2.5293   -1.7546 H         1 <0>         0.4274
@<TRIPOS>BOND
     1    1    2 1
     2    1   39 1
     3    1   40 1
     4    1   41 1
     5    2   10 1
     6    2   21 1
     7    2    3 1
     8    3    4 1
     9    3    5 1
    10    3   37 1
    11    5    6 1
    12    5    7 1
    13    5   35 1
    14    7    8 1
    15    7   42 1
    16    7   43 1
    17    8    9 1
    18    8   10 1
    19    8   11 1
    20   11   19 1
    21   11   12 1
    22   12   17 ar
    23   12   13 ar
    24   13   14 ar
    25   13   44 1
    26   14   15 ar
    27   14   45 1
    28   15   16 ar
    29   15   46 1
    30   16   17 ar
    31   16   47 1
    32   17   18 1
    33   18   30 ar
    34   18   19 ar
    35   19   20 ar
    36   20   28 ar
    37   20   21 1
    38   21   22 1
    39   22   27 ar
    40   22   23 ar
    41   23   24 ar
    42   23   48 1
    43   24   25 ar
    44   24   49 1
    45   25   26 ar
    46   25   50 1
    47   26   27 ar
    48   26   51 1
    49   27   28 1
    50   28   29 ar
    51   29   34 1
    52   29   30 ar
    53   30   31 1
    54   31   32 2
    55   31   33 am
    56   33   34 1
    57   33   52 1
    58   34   53 1
    59   34   54 1
    60   35   36 1
    61   35   55 1
    62   35   62 1
    63   36   56 1
    64   36   57 1
    65   36   58 1
    66   37   38 1
    67   38   59 1
    68   38   60 1
    69   38   61 1
