@<TRIPOS>MOLECULE
ZINC00621853
   54    56     0     0     0
SMALL
USER_CHARGES

@<TRIPOS>ATOM
      1 C1         -0.0284    1.4293   -0.4778 C.3       1 <0>        -0.1767
      2 C2         -0.0129   -0.0745   -0.3804 C.2       1 <0>         0.5133
      3 O1          1.0419   -0.6727   -0.4014 O.2       1 <0>        -0.5352
      4 N1         -1.1713   -0.7546   -0.2699 N.am      1 <0>        -0.7311
      5 C3         -1.1562   -2.2164   -0.1752 C.3       1 <0>         0.1688
      6 H1         -0.2762   -2.5266    0.3883 H         1 <0>         0.1083
      7 C4         -2.3999   -2.6766    0.5586 C.3       1 <0>        -0.1167
      8 C5         -2.6213   -4.1756    0.3776 C.3       1 <0>        -0.0793
      9 C6         -1.3153   -4.9067    0.5534 C.ar      1 <0>        -0.0232
     10 C7         -1.0582   -5.5960    1.7202 C.ar      1 <0>        -0.1967
     11 C8          0.1423   -6.2778    1.8745 C.ar      1 <0>         0.1328
     12 C9          1.0898   -6.2717    0.8565 C.ar      1 <0>         0.0421
     13 C10         0.8389   -5.5766   -0.3193 C.ar      1 <0>         0.1373
     14 C11        -0.3691   -4.8877   -0.4655 C.ar      1 <0>        -0.0983
     15 C12        -0.6334   -4.1159   -1.7162 C.2       1 <0>        -0.0547
     16 C13        -1.0800   -2.8009   -1.5711 C.2       1 <0>         0.0265
     17 C14        -1.4567   -1.9931   -2.5770 C.2       1 <0>        -0.2146
     18 C15        -1.4974   -2.1542   -3.9332 C.2       1 <0>         0.3926
     19 O2         -1.9764   -1.2222   -4.5653 O.2       1 <0>        -0.4893
     20 C16        -1.0654   -3.2383   -4.6895 C.2       1 <0>         0.1028
     21 C17        -0.5761   -4.4044   -4.1889 C.2       1 <0>        -0.1927
     22 C18        -0.4083   -4.7668   -2.9017 C.2       1 <0>        -0.0172
     23 O3         -1.1385   -3.1234   -6.0380 O.3       1 <0>        -0.2828
     24 C19        -0.6931   -4.2409   -6.8094 C.3       1 <0>         0.0136
     25 O4          1.7595   -5.5657   -1.3188 O.3       1 <0>        -0.3263
     26 C20         2.8002   -4.5904   -1.2317 C.3       1 <0>         0.0375
     27 O5          2.2617   -6.9458    1.0126 O.3       1 <0>        -0.3181
     28 C21         2.2856   -8.3114    0.5923 C.3       1 <0>         0.0378
     29 O6          0.3920   -6.9547    3.0264 O.3       1 <0>        -0.3018
     30 C22        -0.6230   -6.9211    4.0317 C.3       1 <0>         0.0227
     31 H2          0.9938    1.7986   -0.5602 H         1 <0>         0.0946
     32 H3         -0.5957    1.7305   -1.3585 H         1 <0>         0.0918
     33 H4         -0.4946    1.8464    0.4148 H         1 <0>         0.0904
     34 H5         -2.0149   -0.2761   -0.2531 H         1 <0>         0.4055
     35 H6         -2.2905   -2.4569    1.6206 H         1 <0>         0.0846
     36 H7         -3.2642   -2.1380    0.1701 H         1 <0>         0.0835
     37 H8         -3.3373   -4.5286    1.1197 H         1 <0>         0.0890
     38 H9         -3.0121   -4.3664   -0.6219 H         1 <0>         0.0850
     39 H10        -1.7902   -5.6054    2.5142 H         1 <0>         0.1419
     40 H11        -1.7954   -1.0220   -2.2473 H         1 <0>         0.1371
     41 H12        -0.2789   -5.1392   -4.9226 H         1 <0>         0.1361
     42 H13        -0.0246   -5.7689   -2.7793 H         1 <0>         0.1273
     43 H14        -1.2900   -5.1174   -6.5574 H         1 <0>         0.0642
     44 H15        -0.8052   -4.0177   -7.8704 H         1 <0>         0.1099
     45 H16         0.3557   -4.4397   -6.5888 H         1 <0>         0.0642
     46 H17         3.4194   -4.7966   -0.3586 H         1 <0>         0.0551
     47 H18         3.4145   -4.6331   -2.1311 H         1 <0>         0.0957
     48 H19         2.3606   -3.5973   -1.1389 H         1 <0>         0.0532
     49 H20         1.9730   -8.3763   -0.4499 H         1 <0>         0.0481
     50 H21         3.2970   -8.7050    0.6934 H         1 <0>         0.0941
     51 H22         1.6051   -8.8945    1.2127 H         1 <0>         0.0461
     52 H23        -1.5429   -7.3495    3.6338 H         1 <0>         0.0583
     53 H24        -0.2973   -7.4993    4.8964 H         1 <0>         0.1043
     54 H25        -0.8031   -5.8888    4.3318 H         1 <0>         0.0588
@<TRIPOS>BOND
     1    1    2 1
     2    1   31 1
     3    1   32 1
     4    1   33 1
     5    2    3 2
     6    2    4 am
     7    4    5 1
     8    4   34 1
     9    5    6 1
    10    5   16 1
    11    5    7 1
    12    7    8 1
    13    7   35 1
    14    7   36 1
    15    8    9 1
    16    8   37 1
    17    8   38 1
    18    9   14 ar
    19    9   10 ar
    20   10   11 ar
    21   10   39 1
    22   11   12 ar
    23   11   29 1
    24   12   13 ar
    25   12   27 1
    26   13   14 ar
    27   13   25 1
    28   14   15 1
    29   15   22 2
    30   15   16 1
    31   16   17 2
    32   17   18 1
    33   17   40 1
    34   18   19 2
    35   18   20 1
    36   20   21 2
    37   20   23 1
    38   21   22 1
    39   21   41 1
    40   22   42 1
    41   23   24 1
    42   24   43 1
    43   24   44 1
    44   24   45 1
    45   25   26 1
    46   26   46 1
    47   26   47 1
    48   26   48 1
    49   27   28 1
    50   28   49 1
    51   28   50 1
    52   28   51 1
    53   29   30 1
    54   30   52 1
    55   30   53 1
    56   30   54 1
@<TRIPOS>MOLECULE
ZINC21982951
   60    63     0     0     0
SMALL
USER_CHARGES

@<TRIPOS>ATOM
      1 C1         -2.0700    1.6928    0.2333 C.3       1 <0>        -0.1170
      2 C2         -1.6482    0.2604    0.0301 C.ar      1 <0>        -0.0813
      3 C3         -1.8479   -0.3525   -1.1919 C.ar      1 <0>        -0.1034
      4 C4         -1.4615   -1.6665   -1.3798 C.ar      1 <0>        -0.0990
      5 C5         -0.8738   -2.3725   -0.3459 C.ar      1 <0>        -0.1046
      6 C6         -0.6714   -1.7660    0.8791 C.ar      1 <0>        -0.0220
      7 C7         -1.0534   -0.4428    1.0688 C.ar      1 <0>         0.1347
      8 N1         -0.8441    0.1769    2.3055 N.am      1 <0>        -0.6659
      9 C8         -1.2819   -0.4110    3.4365 C.2       1 <0>         0.6018
     10 O1         -1.7689   -1.5261    3.3939 O.2       1 <0>        -0.4722
     11 C9         -1.1720    0.2905    4.7149 C.2       1 <0>        -0.2635
     12 C10        -1.5472   -0.1201    5.9866 C.2       1 <0>         0.1512
     13 N2         -1.3262    0.7270    6.9599 N.2       1 <0>        -0.5510
     14 C11        -0.7756    1.9070    6.7361 C.2       1 <0>         0.2513
     15 S1         -0.5107    1.9100    5.0742 S.3       1 <0>         0.2445
     16 N3         -0.4817    2.8997    7.6498 N.pl3     1 <0>        -0.5870
     17 C12        -0.6908    2.6801    9.0050 C.ar      1 <0>         0.4543
     18 C13        -1.0534    1.4192    9.4679 C.ar      1 <0>        -0.2926
     19 C14        -1.2512    1.2508   10.8352 C.ar      1 <0>         0.4935
     20 N4         -1.0875    2.2952   11.6453 N.ar      1 <0>        -0.5328
     21 C15        -0.7435    3.4737   11.1677 C.ar      1 <0>         0.4541
     22 N5         -0.5417    3.6719    9.8809 N.ar      1 <0>        -0.5672
     23 C16        -0.5694    4.6273   12.1217 C.3       1 <0>        -0.1251
     24 N6         -1.6138    0.0143   11.3464 N.pl3     1 <0>        -0.5370
     25 C17        -2.0559   -0.1253   12.7422 C.3       1 <0>         0.1090
     26 C18        -3.3866   -0.8852   12.7576 C.3       1 <0>         0.0383
     27 N7         -3.2335   -2.1493   12.0251 N.3       1 <0>        -0.5289
     28 C19        -2.9165   -1.9105   10.6107 C.3       1 <0>         0.0343
     29 C20        -1.5725   -1.1917   10.5056 C.3       1 <0>         0.1057
     30 C21        -4.4334   -2.9856   12.1619 C.3       1 <0>         0.0545
     31 C22        -4.1483   -4.3816   11.6043 C.3       1 <0>         0.0776
     32 O2         -3.1500   -5.0191   12.4038 O.3       1 <0>        -0.5606
     33 Cl1         0.0658   -2.6526    2.1768 Cl        1 <0>        -0.0453
     34 H1         -1.2464    2.3553   -0.0328 H         1 <0>         0.0773
     35 H2         -2.9308    1.9112   -0.3987 H         1 <0>         0.0785
     36 H3         -2.3379    1.8478    1.2784 H         1 <0>         0.0640
     37 H4         -2.3069    0.1956   -2.0014 H         1 <0>         0.1372
     38 H5         -1.6193   -2.1430   -2.3361 H         1 <0>         0.1391
     39 H6         -0.5731   -3.3989   -0.4959 H         1 <0>         0.1403
     40 H7         -0.3838    1.0296    2.3489 H         1 <0>         0.4083
     41 H8         -1.9972   -1.0858    6.1634 H         1 <0>         0.2027
     42 H9         -0.1293    3.7505    7.3451 H         1 <0>         0.4460
     43 H10        -1.1784    0.5927    8.7841 H         1 <0>         0.2218
     44 H11         0.4644    4.6619   12.4652 H         1 <0>         0.1245
     45 H12        -0.8146    5.5596   11.6130 H         1 <0>         0.1071
     46 H13        -1.2322    4.4948   12.9768 H         1 <0>         0.1273
     47 H14        -1.3096   -0.6823   13.3087 H         1 <0>         0.0989
     48 H15        -2.1929    0.8619   13.1834 H         1 <0>         0.1094
     49 H16        -3.6740   -1.0944   13.7880 H         1 <0>         0.1036
     50 H17        -4.1569   -0.2794   12.2806 H         1 <0>         0.0428
     51 H18        -2.8631   -2.8634   10.0841 H         1 <0>         0.1043
     52 H19        -3.6935   -1.2904   10.1636 H         1 <0>         0.0450
     53 H20        -1.3900   -0.9091    9.4688 H         1 <0>         0.1029
     54 H21        -0.7788   -1.8532   10.8529 H         1 <0>         0.1042
     55 H22        -4.7041   -3.0633   13.2149 H         1 <0>         0.0912
     56 H23        -5.2561   -2.5340   11.6075 H         1 <0>         0.0533
     57 H24        -5.0627   -4.9745   11.6240 H         1 <0>         0.0547
     58 H25        -3.7921   -4.2970   10.5776 H         1 <0>         0.0454
     59 H26        -2.9188   -5.9101   12.1076 H         1 <0>         0.3805
     60 H27        -0.2852    4.5531    9.5669 H         1 <0>         0.4414
@<TRIPOS>BOND
     1    1    2 1
     2    1   34 1
     3    1   35 1
     4    1   36 1
     5    2    7 ar
     6    2    3 ar
     7    3    4 ar
     8    3   37 1
     9    4    5 ar
    10    4   38 1
    11    5    6 ar
    12    5   39 1
    13    6    7 ar
    14    6   33 1
    15    7    8 1
    16    8    9 am
    17    8   40 1
    18    9   10 2
    19    9   11 1
    20   11   15 1
    21   11   12 2
    22   12   13 1
    23   12   41 1
    24   13   14 2
    25   14   15 1
    26   14   16 1
    27   16   17 1
    28   16   42 1
    29   17   22 ar
    30   17   18 ar
    31   18   19 ar
    32   18   43 1
    33   19   20 ar
    34   19   24 1
    35   20   21 ar
    36   21   22 ar
    37   21   23 1
    38   22   60 1
    39   23   44 1
    40   23   45 1
    41   23   46 1
    42   24   29 1
    43   24   25 1
    44   25   26 1
    45   25   47 1
    46   25   48 1
    47   26   27 1
    48   26   49 1
    49   26   50 1
    50   27   28 1
    51   27   30 1
    52   28   29 1
    53   28   51 1
    54   28   52 1
    55   29   53 1
    56   29   54 1
    57   30   31 1
    58   30   55 1
    59   30   56 1
    60   31   32 1
    61   31   57 1
    62   31   58 1
    63   32   59 1
@<TRIPOS>MOLECULE
ZINC21982951
   60    63     0     0     0
SMALL
USER_CHARGES

@<TRIPOS>ATOM
      1 C1          3.2739    6.6585    1.8418 C.3       1 <0>        -0.1168
      2 C2          2.5810    7.9910    1.9663 C.ar      1 <0>        -0.0823
      3 C3          2.8983    9.0189    1.0995 C.ar      1 <0>        -0.1038
      4 C4          2.2635   10.2419    1.2126 C.ar      1 <0>        -0.1008
      5 C5          1.3088   10.4411    2.1933 C.ar      1 <0>        -0.1049
      6 C6          0.9869    9.4175    3.0639 C.ar      1 <0>        -0.0226
      7 C7          1.6192    8.1849    2.9486 C.ar      1 <0>         0.1373
      8 N1          1.2913    7.1440    3.8238 N.am      1 <0>        -0.6678
      9 C8          1.3128    7.3511    5.1554 C.2       1 <0>         0.6036
     10 O1          1.5184    8.4680    5.5945 O.2       1 <0>        -0.4759
     11 C9          1.0891    6.2346    6.0728 C.2       1 <0>        -0.2694
     12 C10         1.0619    6.2190    7.4604 C.2       1 <0>         0.1522
     13 N2          0.8357    5.0596    8.0247 N.2       1 <0>        -0.5060
     14 C11         0.6446    3.9678    7.3056 C.2       1 <0>         0.2464
     15 S1          0.7674    4.5141    5.7185 S.3       1 <0>         0.2029
     16 N3          0.3973    2.6842    7.7505 N.pl3     1 <0>        -0.5650
     17 C12         0.2197    2.4414    9.1063 C.ar      1 <0>         0.4999
     18 C13        -0.1342    1.1736    9.5555 C.ar      1 <0>        -0.3181
     19 C14        -0.3003    0.9817   10.9244 C.ar      1 <0>         0.4940
     20 N4         -0.1157    2.0114   11.7481 N.ar      1 <0>        -0.5712
     21 C15         0.2193    3.1978   11.2829 C.ar      1 <0>         0.4509
     22 N5          0.3911    3.4178    9.9956 N.ar      1 <0>        -0.4879
     23 C16         0.4179    4.3344   12.2523 C.3       1 <0>        -0.1253
     24 N6         -0.6531   -0.2629   11.4224 N.pl3     1 <0>        -0.5744
     25 C17        -0.9639   -0.4449   12.8484 C.3       1 <0>         0.1013
     26 C18        -2.3114   -1.1652   12.9649 C.3       1 <0>         0.0387
     27 N7         -2.2712   -2.4031   12.1749 N.3       1 <0>        -0.5277
     28 C19        -2.0835   -2.1176   10.7462 C.3       1 <0>         0.0305
     29 C20        -0.7325   -1.4351   10.5377 C.3       1 <0>         0.1149
     30 C21        -3.4796   -3.2085   12.3965 C.3       1 <0>         0.0543
     31 C22        -3.2958   -4.5889   11.7629 C.3       1 <0>         0.0774
     32 O2         -2.2472   -5.2869   12.4378 O.3       1 <0>        -0.5615
     33 Cl1        -0.2110    9.6681    4.2952 Cl        1 <0>        -0.0453
     34 H1          2.7121    6.0191    1.1609 H         1 <0>         0.0767
     35 H2          4.2810    6.8077    1.4524 H         1 <0>         0.0779
     36 H3          3.3298    6.1850    2.8220 H         1 <0>         0.0648
     37 H4          3.6435    8.8670    0.3327 H         1 <0>         0.1365
     38 H5          2.5139   11.0437    0.5337 H         1 <0>         0.1383
     39 H6          0.8148   11.3976    2.2790 H         1 <0>         0.1396
     40 H7          1.0484    6.2731    3.4723 H         1 <0>         0.4083
     41 H8          1.2191    7.1147    8.0430 H         1 <0>         0.1979
     42 H9          0.3477    1.9521    7.1161 H         1 <0>         0.4525
     43 H10        -0.2767    0.3593    8.8606 H         1 <0>         0.1835
     44 H11         1.4596    4.3615   12.5720 H         1 <0>         0.1250
     45 H12         0.1626    5.2758   11.7656 H         1 <0>         0.1301
     46 H13        -0.2249    4.1881   13.1203 H         1 <0>         0.1049
     47 H14        -0.1857   -1.0458   13.3190 H         1 <0>         0.1119
     48 H15        -1.0251    0.5276   13.3369 H         1 <0>         0.0843
     49 H16        -2.5057   -1.4068   14.0099 H         1 <0>         0.1076
     50 H17        -3.1034   -0.5184   12.5874 H         1 <0>         0.0465
     51 H18        -2.1124   -3.0499   10.1822 H         1 <0>         0.1076
     52 H19        -2.8786   -1.4576   10.3996 H         1 <0>         0.0467
     53 H20        -0.6409   -1.1170    9.4992 H         1 <0>         0.1034
     54 H21         0.0684   -2.1330   10.7819 H         1 <0>         0.1075
     55 H22        -3.6507   -3.3200   13.4672 H         1 <0>         0.0925
     56 H23        -4.3362   -2.7111   11.9416 H         1 <0>         0.0553
     57 H24        -4.2233   -5.1548   11.8494 H         1 <0>         0.0565
     58 H25        -3.0370   -4.4741   10.7103 H         1 <0>         0.0456
     59 H26        -2.0752   -6.1719   12.0881 H         1 <0>         0.3821
     60 H27        -0.2297    1.8867   12.7033 H         1 <0>         0.4392
@<TRIPOS>BOND
     1    1    2 1
     2    1   34 1
     3    1   35 1
     4    1   36 1
     5    2    7 ar
     6    2    3 ar
     7    3    4 ar
     8    3   37 1
     9    4    5 ar
    10    4   38 1
    11    5    6 ar
    12    5   39 1
    13    6    7 ar
    14    6   33 1
    15    7    8 1
    16    8    9 am
    17    8   40 1
    18    9   10 2
    19    9   11 1
    20   11   15 1
    21   11   12 2
    22   12   13 1
    23   12   41 1
    24   13   14 2
    25   14   15 1
    26   14   16 1
    27   16   17 1
    28   16   42 1
    29   17   18 ar
    30   17   22 ar
    31   18   43 1
    32   18   19 ar
    33   19   24 1
    34   19   20 ar
    35   20   60 1
    36   20   21 ar
    37   21   23 1
    38   21   22 ar
    39   23   44 1
    40   23   45 1
    41   23   46 1
    42   24   29 1
    43   24   25 1
    44   25   26 1
    45   25   47 1
    46   25   48 1
    47   26   27 1
    48   26   49 1
    49   26   50 1
    50   27   28 1
    51   27   30 1
    52   28   29 1
    53   28   51 1
    54   28   52 1
    55   29   53 1
    56   29   54 1
    57   30   31 1
    58   30   55 1
    59   30   56 1
    60   31   32 1
    61   31   57 1
    62   31   58 1
    63   32   59 1
@<TRIPOS>MOLECULE
ZINC21982951
   59    62     0     0     0
SMALL
USER_CHARGES

@<TRIPOS>ATOM
      1 C1          3.4106    6.6420    1.8847 C.3       1 <0>        -0.1165
      2 C2          2.6976    7.9659    1.9845 C.ar      1 <0>        -0.0852
      3 C3          3.0204    8.9921    1.1176 C.ar      1 <0>        -0.1055
      4 C4          2.3672   10.2073    1.2080 C.ar      1 <0>        -0.1070
      5 C5          1.3885   10.4004    2.1660 C.ar      1 <0>        -0.1064
      6 C6          1.0609    9.3785    3.0365 C.ar      1 <0>        -0.0243
      7 C7          1.7118    8.1536    2.9438 C.ar      1 <0>         0.1460
      8 N1          1.3783    7.1144    3.8189 N.am      1 <0>        -0.6734
      9 C8          1.3676    7.3308    5.1492 C.2       1 <0>         0.6131
     10 O1          1.5489    8.4533    5.5848 O.2       1 <0>        -0.4899
     11 C9          1.1384    6.2176    6.0693 C.2       1 <0>        -0.3092
     12 C10         1.0807    6.2111    7.4561 C.2       1 <0>         0.1722
     13 N2          0.8573    5.0526    8.0233 N.2       1 <0>        -0.5180
     14 C11         0.6966    3.9535    7.3079 C.2       1 <0>         0.3121
     15 S1          0.8472    4.4907    5.7202 S.3       1 <0>         0.1340
     16 N3          0.4564    2.6698    7.7563 N.pl3     1 <0>        -0.5904
     17 C12         0.2490    2.4343    9.1091 C.ar      1 <0>         0.4412
     18 C13        -0.1036    1.1661    9.5586 C.ar      1 <0>        -0.3412
     19 C14        -0.3003    0.9817   10.9244 C.ar      1 <0>         0.4686
     20 N4         -0.1450    2.0186   11.7452 N.ar      1 <0>        -0.5923
     21 C15         0.1898    3.2050   11.2799 C.ar      1 <0>         0.3946
     22 N5          0.3901    3.4182    9.9956 N.ar      1 <0>        -0.5459
     23 C16         0.3546    4.3498   12.2460 C.3       1 <0>        -0.0834
     24 N6         -0.6531   -0.2629   11.4224 N.pl3     1 <0>        -0.5966
     25 C17        -1.0693   -0.4249   12.8237 C.3       1 <0>         0.1300
     26 C18        -2.3993   -1.1856   12.8517 C.3       1 <0>         0.0401
     27 N7         -2.2595   -2.4378   12.0965 N.3       1 <0>        -0.5276
     28 C19        -1.9688   -2.1765   10.6804 C.3       1 <0>         0.0363
     29 C20        -0.6270   -1.4554   10.5619 C.3       1 <0>         0.1269
     30 C21        -3.4565   -3.2768   12.2420 C.3       1 <0>         0.0537
     31 C22        -3.1814   -4.6636   11.6572 C.3       1 <0>         0.0792
     32 O2         -2.1684   -5.3132   12.4279 O.3       1 <0>        -0.5589
     33 Cl1        -0.1672    9.6214    4.2392 Cl        1 <0>        -0.0433
     34 H1          2.8725    5.9906    1.1961 H         1 <0>         0.0754
     35 H2          4.4240    6.8020    1.5166 H         1 <0>         0.0754
     36 H3          3.4510    6.1760    2.8692 H         1 <0>         0.0676
     37 H4          3.7844    8.8450    0.3685 H         1 <0>         0.1337
     38 H5          2.6220   11.0077    0.5292 H         1 <0>         0.1350
     39 H6          0.8801   11.3508    2.2339 H         1 <0>         0.1371
     40 H7          1.1547    6.2381    3.4683 H         1 <0>         0.4085
     41 H8          1.2132    7.1127    8.0357 H         1 <0>         0.1884
     42 H9          0.4325    1.9325    7.1264 H         1 <0>         0.4387
     43 H10        -0.2220    0.3459    8.8660 H         1 <0>         0.1413
     44 H11         1.3882    4.3890   12.5900 H         1 <0>         0.0870
     45 H12         0.1021    5.2855   11.7470 H         1 <0>         0.0890
     46 H13        -0.3072    4.2031   13.0995 H         1 <0>         0.0846
     47 H14        -0.3126   -0.9904   13.3674 H         1 <0>         0.0744
     48 H15        -1.1984    0.5551   13.2831 H         1 <0>         0.1008
     49 H16        -2.6676   -1.4113   13.8837 H         1 <0>         0.0903
     50 H17        -3.1785   -0.5727   12.3986 H         1 <0>         0.0372
     51 H18        -1.9249   -3.1208   10.1378 H         1 <0>         0.0905
     52 H19        -2.7540   -1.5497   10.2576 H         1 <0>         0.0380
     53 H20        -0.4638   -1.1563    9.5265 H         1 <0>         0.0877
     54 H21         0.1731   -2.1219   10.8840 H         1 <0>         0.0802
     55 H22        -3.7077   -3.3713   13.2985 H         1 <0>         0.0861
     56 H23        -4.2894   -2.8169   11.7102 H         1 <0>         0.0487
     57 H24        -4.0952   -5.2572   11.6843 H         1 <0>         0.0498
     58 H25        -2.8443   -4.5626   10.6256 H         1 <0>         0.0451
     59 H26        -1.9426   -6.1994   12.1134 H         1 <0>         0.3762
@<TRIPOS>BOND
     1    1    2 1
     2    1   34 1
     3    1   35 1
     4    1   36 1
     5    2    7 ar
     6    2    3 ar
     7    3    4 ar
     8    3   37 1
     9    4    5 ar
    10    4   38 1
    11    5    6 ar
    12    5   39 1
    13    6    7 ar
    14    6   33 1
    15    7    8 1
    16    8    9 am
    17    8   40 1
    18    9   10 2
    19    9   11 1
    20   11   15 1
    21   11   12 2
    22   12   13 1
    23   12   41 1
    24   13   14 2
    25   14   15 1
    26   14   16 1
    27   16   17 1
    28   16   42 1
    29   17   18 ar
    30   17   22 ar
    31   18   43 1
    32   18   19 ar
    33   19   24 1
    34   19   20 ar
    35   20   21 ar
    36   21   23 1
    37   21   22 ar
    38   23   44 1
    39   23   45 1
    40   23   46 1
    41   24   29 1
    42   24   25 1
    43   25   26 1
    44   25   47 1
    45   25   48 1
    46   26   27 1
    47   26   49 1
    48   26   50 1
    49   27   28 1
    50   27   30 1
    51   28   29 1
    52   28   51 1
    53   28   52 1
    54   29   53 1
    55   29   54 1
    56   30   31 1
    57   30   55 1
    58   30   56 1
    59   31   32 1
    60   31   57 1
    61   31   58 1
    62   32   59 1
@<TRIPOS>MOLECULE
ZINC21982951
   61    64     0     0     0
SMALL
USER_CHARGES

@<TRIPOS>ATOM
      1 C1          3.2770    6.6581    1.8427 C.3       1 <0>        -0.1166
      2 C2          2.5837    7.9904    1.9667 C.ar      1 <0>        -0.0814
      3 C3          2.9012    9.0183    1.0999 C.ar      1 <0>        -0.1028
      4 C4          2.2660   10.2411    1.2125 C.ar      1 <0>        -0.0975
      5 C5          1.3108   10.4402    2.1928 C.ar      1 <0>        -0.1039
      6 C6          0.9888    9.4167    3.0634 C.ar      1 <0>        -0.0218
      7 C7          1.6215    8.1842    2.9485 C.ar      1 <0>         0.1327
      8 N1          1.2933    7.1433    3.8237 N.am      1 <0>        -0.6648
      9 C8          1.3141    7.3507    5.1552 C.2       1 <0>         0.5983
     10 O1          1.5193    8.4677    5.5943 O.2       1 <0>        -0.4690
     11 C9          1.0903    6.2342    6.0727 C.2       1 <0>        -0.2500
     12 C10         1.0624    6.2188    7.4604 C.2       1 <0>         0.1439
     13 N2          0.8362    5.0594    8.0246 N.2       1 <0>        -0.4984
     14 C11         0.6458    3.9675    7.3056 C.2       1 <0>         0.2172
     15 S1          0.7692    4.5136    5.7185 S.3       1 <0>         0.2242
     16 N3          0.3986    2.6839    7.7506 N.pl3     1 <0>        -0.5513
     17 C12         0.2203    2.4413    9.1063 C.ar      1 <0>         0.5098
     18 C13        -0.1335    1.1734    9.5556 C.ar      1 <0>        -0.3097
     19 C14        -0.3003    0.9817   10.9244 C.ar      1 <0>         0.4927
     20 N4         -0.1163    2.0116   11.7481 N.ar      1 <0>        -0.5695
     21 C15         0.2187    3.1980   11.2828 C.ar      1 <0>         0.4589
     22 N5          0.3911    3.4178    9.9956 N.ar      1 <0>        -0.4762
     23 C16         0.4165    4.3348   12.2521 C.3       1 <0>        -0.1303
     24 N6         -0.6531   -0.2629   11.4224 N.pl3     1 <0>        -0.6123
     25 C17        -0.9643   -0.4465   12.8484 C.3       1 <0>         0.0782
     26 C18        -2.3027   -1.1838   12.9625 C.3       1 <0>        -0.0204
     27 N7         -2.2406   -2.4311   12.1903 N.4       1 <0>        -0.3852
     28 C19        -2.0770   -2.1279   10.7629 C.3       1 <0>        -0.0304
     29 C20        -0.7330   -1.4363   10.5388 C.3       1 <0>         0.0932
     30 C21        -3.4827   -3.1900   12.3886 C.3       1 <0>        -0.0061
     31 C22        -3.3702   -4.5448   11.6865 C.3       1 <0>         0.0434
     32 O2         -2.3479   -5.3224   12.3128 O.3       1 <0>        -0.5819
     33 Cl1        -0.2098    9.6671    4.2940 Cl        1 <0>        -0.0466
     34 H1          2.7157    6.0184    1.1617 H         1 <0>         0.0770
     35 H2          4.2843    6.8074    1.4538 H         1 <0>         0.0791
     36 H3          3.3325    6.1847    2.8230 H         1 <0>         0.0631
     37 H4          3.6468    8.8665    0.3335 H         1 <0>         0.1380
     38 H5          2.5166   11.0428    0.5336 H         1 <0>         0.1401
     39 H6          0.8165   11.3966    2.2780 H         1 <0>         0.1410
     40 H7          1.0508    6.2723    3.4722 H         1 <0>         0.4077
     41 H8          1.2191    7.1146    8.0429 H         1 <0>         0.2016
     42 H9          0.3494    1.9517    7.1163 H         1 <0>         0.4545
     43 H10        -0.2756    0.3590    8.8607 H         1 <0>         0.1860
     44 H11         1.4581    4.3621   12.5724 H         1 <0>         0.1309
     45 H12         0.1613    5.2760   11.7653 H         1 <0>         0.1358
     46 H13        -0.2267    4.1885   13.1199 H         1 <0>         0.1083
     47 H14        -0.1795   -1.0367   13.3215 H         1 <0>         0.1249
     48 H15        -1.0392    0.5259   13.3352 H         1 <0>         0.1232
     49 H16        -2.5028   -1.4138   14.0090 H         1 <0>         0.1602
     50 H17        -3.0999   -0.5526   12.5701 H         1 <0>         0.1410
     51 H18        -2.1110   -3.0537   10.1885 H         1 <0>         0.1585
     52 H19        -2.8811   -1.4682   10.4370 H         1 <0>         0.1418
     53 H20        -0.6550   -1.1179    9.4992 H         1 <0>         0.1416
     54 H21         0.0756   -2.1281   10.7747 H         1 <0>         0.1211
     55 H22        -3.6469   -3.3459   13.4548 H         1 <0>         0.1465
     56 H23        -4.3202   -2.6321   11.9697 H         1 <0>         0.1464
     57 H24        -4.3221   -5.0710   11.7578 H         1 <0>         0.1026
     58 H25        -3.1180   -4.3904   10.6374 H         1 <0>         0.0719
     59 H26        -2.2211   -6.1961   11.9183 H         1 <0>         0.4154
     60 H27        -0.2308    1.8869   12.7032 H         1 <0>         0.4393
     61 H28        -1.4578   -2.9831   12.5075 H         1 <0>         0.4359
@<TRIPOS>BOND
     1    1    2 1
     2    1   34 1
     3    1   35 1
     4    1   36 1
     5    2    7 ar
     6    2    3 ar
     7    3    4 ar
     8    3   37 1
     9    4    5 ar
    10    4   38 1
    11    5    6 ar
    12    5   39 1
    13    6    7 ar
    14    6   33 1
    15    7    8 1
    16    8    9 am
    17    8   40 1
    18    9   10 2
    19    9   11 1
    20   11   15 1
    21   11   12 2
    22   12   13 1
    23   12   41 1
    24   13   14 2
    25   14   15 1
    26   14   16 1
    27   16   17 1
    28   16   42 1
    29   17   18 ar
    30   17   22 ar
    31   18   43 1
    32   18   19 ar
    33   19   24 1
    34   19   20 ar
    35   20   60 1
    36   20   21 ar
    37   21   23 1
    38   21   22 ar
    39   23   44 1
    40   23   45 1
    41   23   46 1
    42   24   29 1
    43   24   25 1
    44   25   26 1
    45   25   47 1
    46   25   48 1
    47   26   27 1
    48   26   49 1
    49   26   50 1
    50   27   28 1
    51   27   30 1
    52   27   61 1
    53   28   29 1
    54   28   51 1
    55   28   52 1
    56   29   53 1
    57   29   54 1
    58   30   31 1
    59   30   55 1
    60   30   56 1
    61   31   32 1
    62   31   57 1
    63   31   58 1
    64   32   59 1
@<TRIPOS>MOLECULE
ZINC05503291
   44    47     0     0     0
SMALL
USER_CHARGES
2-(3-methoxyphenyl)-6-pyrrolidin-1-yl-1H-quinolin-4-one
@<TRIPOS>ATOM
      1 C1         -3.9348    6.0593    0.0959 C.3       1 <0>         0.0249
      2 O1         -2.6387    5.4577    0.0884 O.3       1 <0>        -0.3124
      3 C2         -2.5889    4.0997    0.0656 C.ar      1 <0>         0.1339
      4 C3         -3.7655    3.3623    0.0502 C.ar      1 <0>        -0.1908
      5 C4         -3.7211    1.9807    0.0265 C.ar      1 <0>        -0.0736
      6 C5         -2.5069    1.3251    0.0131 C.ar      1 <0>        -0.1425
      7 C6         -1.3188    2.0578    0.0337 C.ar      1 <0>        -0.0373
      8 C7         -1.3652    3.4523    0.0571 C.ar      1 <0>        -0.1162
      9 C8         -0.0163    1.3591    0.0246 C.2       1 <0>         0.2480
     10 C9          1.1380    2.1031    0.0340 C.2       1 <0>        -0.2987
     11 C10         2.3904    1.4571    0.0200 C.2       1 <0>         0.4186
     12 O2          3.4286    2.0992    0.0275 O.2       1 <0>        -0.4905
     13 C11         2.4101   -0.0168   -0.0049 C.ar      1 <0>        -0.1888
     14 C12         3.6139   -0.7215   -0.0206 C.ar      1 <0>        -0.0025
     15 C13         3.5948   -2.1042   -0.0443 C.ar      1 <0>         0.0414
     16 C14         2.3805   -2.7892   -0.0520 C.ar      1 <0>        -0.0857
     17 C15         1.1881   -2.1017   -0.0366 C.ar      1 <0>        -0.1623
     18 C16         1.1877   -0.7097   -0.0131 C.ar      1 <0>         0.1940
     19 N1          0.0021   -0.0041    0.0017 N.pl3     1 <0>        -0.6073
     20 H1         -0.8379   -0.4891   -0.0041 H         1 <0>         0.4165
     21 N2          4.7977   -2.8178   -0.0601 N.pl3     1 <0>        -0.4795
     22 C17         4.9397   -3.6490    1.1626 C.3       1 <0>         0.0375
     23 C18         5.9863   -4.7136    0.7480 C.3       1 <0>        -0.1243
     24 C19         5.6195   -5.0034   -0.7255 C.3       1 <0>        -0.1324
     25 C20         4.8384   -3.7628   -1.1971 C.3       1 <0>         0.0359
     26 H2         -4.4789    5.7613   -0.8004 H         1 <0>         0.0582
     27 H3         -4.4826    5.7313    0.9793 H         1 <0>         0.0582
     28 H4         -3.8317    7.1443    0.1144 H         1 <0>         0.1049
     29 H5         -4.7187    3.8700    0.0565 H         1 <0>         0.1353
     30 H6         -4.6397    1.4128    0.0143 H         1 <0>         0.1343
     31 H7         -2.4758    0.2458   -0.0096 H         1 <0>         0.1237
     32 H8         -0.4495    4.0247    0.0683 H         1 <0>         0.1462
     33 H9          1.0861    3.1817    0.0523 H         1 <0>         0.1552
     34 H10         4.5545   -0.1909   -0.0146 H         1 <0>         0.1474
     35 H11         2.3753   -3.8690   -0.0705 H         1 <0>         0.1304
     36 H12         0.2530   -2.6420   -0.0432 H         1 <0>         0.1338
     37 H13         5.3095   -3.0495    1.9945 H         1 <0>         0.0865
     38 H14         3.9914   -4.1212    1.4191 H         1 <0>         0.0497
     39 H15         5.8830   -5.6129    1.3553 H         1 <0>         0.0745
     40 H16         6.9975   -4.3137    0.8223 H         1 <0>         0.0780
     41 H17         4.9926   -5.8927   -0.7915 H         1 <0>         0.0683
     42 H18         6.5218   -5.1321   -1.3233 H         1 <0>         0.0756
     43 H19         3.8249   -4.0474   -1.4798 H         1 <0>         0.0504
     44 H20         5.3447   -3.3018   -2.0452 H         1 <0>         0.0836
@<TRIPOS>BOND
     1    1    2 1
     2    1   26 1
     3    1   27 1
     4    1   28 1
     5    2    3 1
     6    3    8 ar
     7    3    4 ar
     8    4    5 ar
     9    4   29 1
    10    5    6 ar
    11    5   30 1
    12    6    7 ar
    13    6   31 1
    14    7    8 ar
    15    7    9 1
    16    8   32 1
    17    9   19 1
    18    9   10 2
    19   10   11 1
    20   10   33 1
    21   11   12 2
    22   11   13 1
    23   13   18 ar
    24   13   14 ar
    25   14   15 ar
    26   14   34 1
    27   15   16 ar
    28   15   21 1
    29   16   17 ar
    30   16   35 1
    31   17   18 ar
    32   17   36 1
    33   18   19 1
    34   19   20 1
    35   21   25 1
    36   21   22 1
    37   22   23 1
    38   22   37 1
    39   22   38 1
    40   23   24 1
    41   23   39 1
    42   23   40 1
    43   24   25 1
    44   24   41 1
    45   24   42 1
    46   25   43 1
    47   25   44 1
@<TRIPOS>MOLECULE
ZINC00023387
   33    36     0     0     0
SMALL
USER_CHARGES
(3-fluorophenyl)BLAHone
@<TRIPOS>ATOM
      1 C1         -0.6635    9.8641    0.5387 C.ar      1 <0>        -0.0880
      2 C2         -1.8715    9.2278    0.7571 C.ar      1 <0>        -0.1165
      3 C3         -1.9781    7.8622    0.5718 C.ar      1 <0>        -0.0867
      4 C4         -0.8753    7.1302    0.1736 C.ar      1 <0>        -0.1536
      5 C5          0.3335    7.7669   -0.0500 C.ar      1 <0>         0.1031
      6 C6          0.4389    9.1352    0.1356 C.ar      1 <0>        -0.1491
      7 F1          1.4108    7.0532   -0.4441 F         1 <0>        -0.1369
      8 C7         -3.2955    7.1703    0.8098 C.3       1 <0>         0.2007
      9 H1         -3.9294    7.7973    1.4368 H         1 <0>         0.1210
     10 C8         -3.9943    6.9117   -0.5329 C.3       1 <0>        -0.1642
     11 C9         -3.1158    5.9766   -1.3399 C.2       1 <0>         0.4106
     12 O1         -2.9230    6.1603   -2.5239 O.2       1 <0>        -0.4449
     13 C10        -2.5067    4.8413   -0.6375 C.ar      1 <0>        -0.2449
     14 C11        -1.9401    3.7784   -1.3511 C.ar      1 <0>         0.0007
     15 C12        -1.3690    2.7255   -0.6697 C.ar      1 <0>        -0.0316
     16 C13        -1.3563    2.7166    0.7295 C.ar      1 <0>         0.1190
     17 C14        -1.9169    3.7651    1.4419 C.ar      1 <0>        -0.1880
     18 C15        -2.4948    4.8307    0.7701 C.ar      1 <0>         0.2762
     19 N1         -3.0621    5.8839    1.4770 N.pl3     1 <0>        -0.7279
     20 O2         -0.7370    1.5751    1.1516 O.3       1 <0>        -0.3030
     21 C16        -0.0127    1.0858    0.0080 C.3       1 <0>         0.2117
     22 O3         -0.7588    1.5874   -1.1165 O.3       1 <0>        -0.3044
     23 H2         -0.5816   10.9312    0.6835 H         1 <0>         0.1370
     24 H3         -2.7326    9.7983    1.0725 H         1 <0>         0.1342
     25 H4         -0.9576    6.0626    0.0331 H         1 <0>         0.1443
     26 H5          1.3825    9.6323   -0.0342 H         1 <0>         0.1371
     27 H6         -4.8888    6.4959   -0.3685 H         1 <0>         0.1038
     28 H7         -4.1239    7.8520   -1.0687 H         1 <0>         0.1105
     29 H8         -1.9503    3.7838   -2.4311 H         1 <0>         0.1475
     30 H9         -1.9030    3.7519    2.5217 H         1 <0>         0.1448
     31 H10        -3.3036    5.7691    2.4094 H         1 <0>         0.4142
     32 H11         0.0021   -0.0041    0.0020 H         1 <0>         0.1352
     33 H12         1.0030    1.4813    0.0004 H         1 <0>         0.0879
@<TRIPOS>BOND
     1    1    6 ar
     2    1    2 ar
     3    1   23 1
     4    2    3 ar
     5    2   24 1
     6    3    4 ar
     7    3    8 1
     8    4    5 ar
     9    4   25 1
    10    5    6 ar
    11    5    7 1
    12    6   26 1
    13    8    9 1
    14    8   19 1
    15    8   10 1
    16   10   11 1
    17   10   27 1
    18   10   28 1
    19   11   12 2
    20   11   13 1
    21   13   18 ar
    22   13   14 ar
    23   14   15 ar
    24   14   29 1
    25   15   22 1
    26   15   16 ar
    27   16   17 ar
    28   16   20 1
    29   17   18 ar
    30   17   30 1
    31   18   19 1
    32   19   31 1
    33   20   21 1
    34   21   22 1
    35   21   32 1
    36   21   33 1
@<TRIPOS>MOLECULE
ZINC03828422
   33    36     0     0     0
SMALL
USER_CHARGES
(3-fluorophenyl)BLAHone
@<TRIPOS>ATOM
      1 C1         -0.1140   -1.3527   -3.8880 C.ar      1 <0>        -0.0851
      2 C2          0.0717   -1.4777   -2.5235 C.ar      1 <0>        -0.1282
      3 C3         -0.1611   -2.6899   -1.9015 C.ar      1 <0>        -0.0862
      4 C4         -0.5907   -3.7756   -2.6411 C.ar      1 <0>        -0.1405
      5 C5         -0.7824   -3.6501   -4.0064 C.ar      1 <0>         0.1007
      6 C6         -0.5434   -2.4367   -4.6295 C.ar      1 <0>        -0.1477
      7 F1         -1.2028   -4.7106   -4.7303 F         1 <0>        -0.1370
      8 C7          0.0477   -2.8261   -0.4152 C.3       1 <0>         0.2006
      9 H1          0.1679   -3.8785   -0.1581 H         1 <0>         0.1193
     10 C8         -1.1648   -2.2494    0.3299 C.3       1 <0>        -0.1648
     11 C9         -1.2487   -0.7714    0.0047 C.2       1 <0>         0.4114
     12 O1         -2.3118   -0.2419   -0.2449 O.2       1 <0>        -0.4450
     13 C10         0.0021   -0.0041    0.0020 C.ar      1 <0>        -0.2437
     14 C11        -0.0169    1.3958    0.0097 C.ar      1 <0>         0.0009
     15 C12         1.1705    2.0952    0.0021 C.ar      1 <0>        -0.0334
     16 C13         2.3907    1.4104   -0.0119 C.ar      1 <0>         0.1195
     17 C14         2.4163    0.0246   -0.0182 C.ar      1 <0>        -0.1882
     18 C15         1.2301   -0.6921   -0.0105 C.ar      1 <0>         0.2778
     19 N1          1.2473   -2.0815   -0.0137 N.pl3     1 <0>        -0.7268
     20 O2          3.4010    2.3261   -0.0167 O.3       1 <0>        -0.3034
     21 C16         2.7952    3.5681   -0.4197 C.3       1 <0>         0.2123
     22 O3          1.4261    3.4375    0.0058 O.3       1 <0>        -0.3050
     23 H2          0.0725   -0.4063   -4.3737 H         1 <0>         0.1340
     24 H3          0.4032   -0.6287   -1.9441 H         1 <0>         0.1385
     25 H4         -0.7771   -4.7214   -2.1541 H         1 <0>         0.1395
     26 H5         -0.6930   -2.3376   -5.6944 H         1 <0>         0.1373
     27 H6         -1.0468   -2.3847    1.3136 H         1 <0>         0.1037
     28 H7         -2.0744   -2.7519    0.0010 H         1 <0>         0.1101
     29 H8         -0.9581    1.9253    0.0171 H         1 <0>         0.1473
     30 H9          3.3618   -0.4973   -0.0288 H         1 <0>         0.1445
     31 H10         2.0503   -2.5582    0.2485 H         1 <0>         0.4143
     32 H11         2.8499    3.6870   -1.5019 H         1 <0>         0.0879
     33 H12         3.2738    4.4083    0.0833 H         1 <0>         0.1352
@<TRIPOS>BOND
     1    1    6 ar
     2    1    2 ar
     3    1   23 1
     4    2    3 ar
     5    2   24 1
     6    3    4 ar
     7    3    8 1
     8    4    5 ar
     9    4   25 1
    10    5    6 ar
    11    5    7 1
    12    6   26 1
    13    8    9 1
    14    8   19 1
    15    8   10 1
    16   10   11 1
    17   10   27 1
    18   10   28 1
    19   11   12 2
    20   11   13 1
    21   13   18 ar
    22   13   14 ar
    23   14   15 ar
    24   14   29 1
    25   15   22 1
    26   15   16 ar
    27   16   17 ar
    28   16   20 1
    29   17   18 ar
    30   17   30 1
    31   18   19 1
    32   19   31 1
    33   20   21 1
    34   21   22 1
    35   21   32 1
    36   21   33 1
@<TRIPOS>MOLECULE
ZINC13779237
   34    36     0     0     0
SMALL
USER_CHARGES
(2S)-2-(3-methoxyphenyl)-2,3-dihydro-1H-quinolin-4-one
@<TRIPOS>ATOM
      1 C1         -3.7993    0.9350   -4.8203 C.3       1 <0>         0.0266
      2 O1         -3.1390    0.3917   -3.6753 O.3       1 <0>        -0.3172
      3 C2         -2.2873    1.2130   -3.0067 C.ar      1 <0>         0.1278
      4 C3         -2.0911    2.5152   -3.4437 C.ar      1 <0>        -0.2027
      5 C4         -1.2246    3.3478   -2.7627 C.ar      1 <0>        -0.0758
      6 C5         -0.5526    2.8844   -1.6465 C.ar      1 <0>        -0.1534
      7 C6         -0.7467    1.5875   -1.2088 C.ar      1 <0>        -0.0756
      8 C7         -1.6087    0.7492   -1.8893 C.ar      1 <0>        -0.1396
      9 C8         -0.0127    1.0858    0.0080 C.3       1 <0>         0.2001
     10 H1          0.0021   -0.0041    0.0020 H         1 <0>         0.1141
     11 C9         -0.7166    1.5839    1.2786 C.3       1 <0>        -0.1653
     12 C10        -0.6461    3.0982    1.2835 C.2       1 <0>         0.4075
     13 O2         -1.6052    3.7718    1.5967 O.2       1 <0>        -0.4510
     14 C11         0.6281    3.7201    0.8941 C.ar      1 <0>        -0.2459
     15 C12         0.8744    5.0707    1.1533 C.ar      1 <0>        -0.0196
     16 C13         2.0757    5.6285    0.7737 C.ar      1 <0>        -0.1853
     17 C14         3.0372    4.8572    0.1378 C.ar      1 <0>        -0.0410
     18 C15         2.8084    3.5217   -0.1238 C.ar      1 <0>        -0.2034
     19 C16         1.6051    2.9385    0.2513 C.ar      1 <0>         0.2619
     20 N1          1.3634    1.5964   -0.0024 N.pl3     1 <0>        -0.7333
     21 H2         -4.3972    1.7957   -4.5205 H         1 <0>         0.0564
     22 H3         -3.0562    1.2467   -5.5543 H         1 <0>         0.0560
     23 H4         -4.4480    0.1771   -5.2593 H         1 <0>         0.1020
     24 H5         -2.6152    2.8774   -4.3158 H         1 <0>         0.1290
     25 H6         -1.0715    4.3615   -3.1024 H         1 <0>         0.1256
     26 H7          0.1248    3.5369   -1.1155 H         1 <0>         0.1363
     27 H8         -1.7568   -0.2651   -1.5495 H         1 <0>         0.1333
     28 H9         -1.6686    1.2779    1.2740 H         1 <0>         0.0952
     29 H10        -0.2118    1.1878    2.1597 H         1 <0>         0.1112
     30 H11         0.1275    5.6739    1.6479 H         1 <0>         0.1322
     31 H12         2.2699    6.6720    0.9728 H         1 <0>         0.1269
     32 H13         3.9745    5.3064   -0.1557 H         1 <0>         0.1277
     33 H14         3.5643    2.9306   -0.6194 H         1 <0>         0.1290
     34 H15         2.1028    0.9961   -0.1861 H         1 <0>         0.4104
@<TRIPOS>BOND
     1    1    2 1
     2    1   21 1
     3    1   22 1
     4    1   23 1
     5    2    3 1
     6    3    8 ar
     7    3    4 ar
     8    4    5 ar
     9    4   24 1
    10    5    6 ar
    11    5   25 1
    12    6    7 ar
    13    6   26 1
    14    7    8 ar
    15    7    9 1
    16    8   27 1
    17    9   10 1
    18    9   20 1
    19    9   11 1
    20   11   12 1
    21   11   28 1
    22   11   29 1
    23   12   13 2
    24   12   14 1
    25   14   19 ar
    26   14   15 ar
    27   15   16 ar
    28   15   30 1
    29   16   17 ar
    30   16   31 1
    31   17   18 ar
    32   17   32 1
    33   18   19 ar
    34   18   33 1
    35   19   20 1
    36   20   34 1
@<TRIPOS>MOLECULE
ZINC01861886
   37    40     0     0     0
SMALL
USER_CHARGES
(3-methoxyphenyl)BLAHone
@<TRIPOS>ATOM
      1 C1          2.6102    1.4526    6.7035 C.3       1 <0>         0.0265
      2 O1          2.8627    1.9966    5.4064 O.3       1 <0>        -0.3169
      3 C2          1.8148    2.0435    4.5424 C.ar      1 <0>         0.1283
      4 C3          0.5689    1.5755    4.9349 C.ar      1 <0>        -0.2018
      5 C4         -0.4944    1.6240    4.0547 C.ar      1 <0>        -0.0747
      6 C5         -0.3180    2.1379    2.7830 C.ar      1 <0>        -0.1531
      7 C6          0.9222    2.6052    2.3897 C.ar      1 <0>        -0.0770
      8 C7          1.9902    2.5545    3.2648 C.ar      1 <0>        -0.1383
      9 C8          1.1108    3.1646    1.0032 C.3       1 <0>         0.2011
     10 H1          2.0003    3.7943    0.9812 H         1 <0>         0.1181
     11 C9          1.2711    2.0124    0.0007 C.3       1 <0>        -0.1631
     12 C10        -0.0144    1.2094    0.0087 C.2       1 <0>         0.4123
     13 O2          0.0021   -0.0041    0.0020 O.2       1 <0>        -0.4468
     14 C11        -1.2795    1.9527    0.0186 C.ar      1 <0>        -0.2415
     15 C12        -2.4880    1.3124   -0.2807 C.ar      1 <0>         0.0009
     16 C13        -3.6643    2.0301   -0.2617 C.ar      1 <0>        -0.0346
     17 C14        -3.6523    3.3931    0.0545 C.ar      1 <0>         0.1184
     18 C15        -2.4573    4.0332    0.3620 C.ar      1 <0>        -0.1893
     19 C16        -1.2665    3.3245    0.3403 C.ar      1 <0>         0.2802
     20 N1         -0.0642    3.9595    0.6263 N.pl3     1 <0>        -0.7263
     21 O3         -4.9322    3.8606    0.0030 O.3       1 <0>        -0.3039
     22 C17        -5.6726    2.8786   -0.7452 C.3       1 <0>         0.2126
     23 O4         -4.9540    1.6534   -0.5105 O.3       1 <0>        -0.3057
     24 H2          2.2655    0.4232    6.6049 H         1 <0>         0.0565
     25 H3          3.5278    1.4737    7.2913 H         1 <0>         0.1021
     26 H4          1.8446    2.0458    7.2036 H         1 <0>         0.0561
     27 H5          0.4308    1.1734    5.9277 H         1 <0>         0.1291
     28 H6         -1.4643    1.2598    4.3597 H         1 <0>         0.1258
     29 H7         -1.1506    2.1746    2.0961 H         1 <0>         0.1335
     30 H8          2.9598    2.9159    2.9556 H         1 <0>         0.1341
     31 H9          2.0435    1.4387    0.2730 H         1 <0>         0.0977
     32 H10         1.4503    2.4125   -0.9972 H         1 <0>         0.1138
     33 H11        -2.4984    0.2605   -0.5250 H         1 <0>         0.1465
     34 H12        -2.4544    5.0854    0.6053 H         1 <0>         0.1440
     35 H13        -0.0015    4.9263    0.5774 H         1 <0>         0.4134
     36 H14        -5.6714    3.1257   -1.8068 H         1 <0>         0.0872
     37 H15        -6.6940    2.8006   -0.3727 H         1 <0>         0.1346
@<TRIPOS>BOND
     1    1    2 1
     2    1   24 1
     3    1   25 1
     4    1   26 1
     5    2    3 1
     6    3    8 ar
     7    3    4 ar
     8    4    5 ar
     9    4   27 1
    10    5    6 ar
    11    5   28 1
    12    6    7 ar
    13    6   29 1
    14    7    8 ar
    15    7    9 1
    16    8   30 1
    17    9   10 1
    18    9   20 1
    19    9   11 1
    20   11   12 1
    21   11   31 1
    22   11   32 1
    23   12   13 2
    24   12   14 1
    25   14   19 ar
    26   14   15 ar
    27   15   16 ar
    28   15   33 1
    29   16   23 1
    30   16   17 ar
    31   17   18 ar
    32   17   21 1
    33   18   19 ar
    34   18   34 1
    35   19   20 1
    36   20   35 1
    37   21   22 1
    38   22   23 1
    39   22   36 1
    40   22   37 1
@<TRIPOS>MOLECULE
ZINC03814434
   62    69     0     0     0
SMALL
USER_CHARGES

@<TRIPOS>ATOM
      1 C1         -0.1295    1.5952   -0.2973 C.3       1 <0>        -0.1687
      2 C2         -0.0862    0.0696   -0.1900 C.3       1 <0>         0.3342
      3 C3          0.5692   -0.4501   -1.4637 C.3       1 <0>         0.0405
      4 H1          1.4796    0.1159   -1.6612 H         1 <0>         0.1372
      5 C4          0.9167   -1.9328   -1.2889 C.3       1 <0>        -0.0061
      6 H2          1.3963   -2.3075   -2.1932 H         1 <0>         0.1555
      7 C5          1.8785   -2.0596   -0.1021 C.3       1 <0>        -0.1827
      8 C6          1.2061   -1.5198    1.1541 C.3       1 <0>         0.2999
      9 H3          1.9797   -1.4243    1.9161 H         1 <0>         0.1550
     10 O1          0.6555   -0.2442    0.9666 O.3       1 <0>        -0.3234
     11 N1          0.2189   -2.4746    1.6600 N.pl3     1 <0>        -0.5366
     12 C7          0.4705   -3.5508    2.4739 C.ar      1 <0>         0.1469
     13 C8          1.6649   -4.0152    3.0240 C.ar      1 <0>        -0.1522
     14 C9          1.5948   -5.1456    3.8201 C.ar      1 <0>        -0.0582
     15 C10         0.4006   -5.7997    4.0696 C.ar      1 <0>        -0.1457
     16 C11        -0.7984   -5.3597    3.5358 C.ar      1 <0>        -0.0280
     17 C12        -0.7487   -4.2198    2.7307 C.ar      1 <0>        -0.1131
     18 C13        -1.7893   -3.4830    2.0197 C.ar      1 <0>         0.0276
     19 C14        -1.1442   -2.4197    1.3841 C.ar      1 <0>         0.0376
     20 C15        -1.8806   -1.5095    0.6175 C.ar      1 <0>         0.0894
     21 N2         -1.4718   -0.3951   -0.1095 N.pl3     1 <0>        -0.5183
     22 C16        -2.5611    0.1913   -0.7090 C.ar      1 <0>         0.1618
     23 C17        -2.6521    1.3277   -1.5118 C.ar      1 <0>        -0.1305
     24 C18        -3.9109    1.6745   -1.9733 C.ar      1 <0>        -0.0737
     25 C19        -5.0393    0.9368   -1.6616 C.ar      1 <0>        -0.1358
     26 C20        -4.9745   -0.1955   -0.8662 C.ar      1 <0>        -0.0503
     27 C21        -3.7147   -0.5596   -0.3919 C.ar      1 <0>        -0.1042
     28 C22        -3.2693   -1.6660    0.4845 C.ar      1 <0>        -0.0360
     29 C23        -3.9084   -2.7313    1.1102 C.ar      1 <0>        -0.0288
     30 C24        -3.1873   -3.6421    1.8754 C.ar      1 <0>        -0.1255
     31 C25        -4.1221   -4.6480    2.4030 C.2       1 <0>         0.5632
     32 O2         -3.8062   -5.5851    3.1110 O.2       1 <0>        -0.5106
     33 N3         -5.3744   -4.3851    1.9926 N.am      1 <0>        -0.7162
     34 C26        -5.3495   -3.1771    1.1601 C.3       1 <0>         0.1358
     35 N4         -0.3067   -2.7008   -1.0216 N.4       1 <0>        -0.5252
     36 C27         0.0145   -4.1336   -0.9773 C.3       1 <0>        -0.0497
     37 O3         -0.3340   -0.2979   -2.5607 O.3       1 <0>        -0.3614
     38 C28         0.3101   -0.0933   -3.8198 C.3       1 <0>         0.0162
     39 H4          0.8261    2.0094    0.0240 H         1 <0>         0.0984
     40 H5         -0.3202    1.8814   -1.3317 H         1 <0>         0.1036
     41 H6         -0.9255    1.9818    0.3392 H         1 <0>         0.0921
     42 H7          2.1370   -3.1081    0.0458 H         1 <0>         0.1233
     43 H8          2.7835   -1.4869   -0.3048 H         1 <0>         0.1455
     44 H9          2.6036   -3.5149    2.8368 H         1 <0>         0.1365
     45 H10         2.5026   -5.5304    4.2610 H         1 <0>         0.1359
     46 H11         0.4045   -6.6780    4.6980 H         1 <0>         0.1352
     47 H12        -1.7278   -5.8736    3.7323 H         1 <0>         0.1600
     48 H13        -1.7792    1.9122   -1.7624 H         1 <0>         0.1440
     49 H14        -4.0153    2.5500   -2.5970 H         1 <0>         0.1336
     50 H15        -5.9967    1.2527   -2.0488 H         1 <0>         0.1332
     51 H16        -5.8575   -0.7687   -0.6249 H         1 <0>         0.1415
     52 H17        -6.1628   -4.9065    2.2103 H         1 <0>         0.4348
     53 H18        -5.9671   -2.3994    1.6094 H         1 <0>         0.1115
     54 H19        -5.7060   -3.4063    0.1559 H         1 <0>         0.1103
     55 H20        -0.6958   -2.4158   -0.1353 H         1 <0>         0.4186
     56 H21         0.4349   -4.4415   -1.9347 H         1 <0>         0.1256
     57 H22         0.7403   -4.3189   -0.1854 H         1 <0>         0.1191
     58 H23        -0.8932   -4.7035   -0.7789 H         1 <0>         0.1256
     59 H24         0.9168    0.8112   -3.7748 H         1 <0>         0.0633
     60 H25         0.9482   -0.9479   -4.0446 H         1 <0>         0.0514
     61 H26        -0.4433    0.0130   -4.6003 H         1 <0>         0.1100
     62 H27        -0.9785   -2.5293   -1.7546 H         1 <0>         0.4274
@<TRIPOS>BOND
     1    1    2 1
     2    1   39 1
     3    1   40 1
     4    1   41 1
     5    2   10 1
     6    2   21 1
     7    2    3 1
     8    3    4 1
     9    3    5 1
    10    3   37 1
    11    5    6 1
    12    5    7 1
    13    5   35 1
    14    7    8 1
    15    7   42 1
    16    7   43 1
    17    8    9 1
    18    8   10 1
    19    8   11 1
    20   11   19 1
    21   11   12 1
    22   12   17 ar
    23   12   13 ar
    24   13   14 ar
    25   13   44 1
    26   14   15 ar
    27   14   45 1
    28   15   16 ar
    29   15   46 1
    30   16   17 ar
    31   16   47 1
    32   17   18 1
    33   18   30 ar
    34   18   19 ar
    35   19   20 ar
    36   20   28 ar
    37   20   21 1
    38   21   22 1
    39   22   27 ar
    40   22   23 ar
    41   23   24 ar
    42   23   48 1
    43   24   25 ar
    44   24   49 1
    45   25   26 ar
    46   25   50 1
    47   26   27 ar
    48   26   51 1
    49   27   28 1
    50   28   29 ar
    51   29   34 1
    52   29   30 ar
    53   30   31 1
    54   31   32 2
    55   31   33 am
    56   33   34 1
    57   33   52 1
    58   34   53 1
    59   34   54 1
    60   35   36 1
    61   35   55 1
    62   35   62 1
    63   36   56 1
    64   36   57 1
    65   36   58 1
    66   37   38 1
    67   38   59 1
    68   38   60 1
    69   38   61 1
@<TRIPOS>MOLECULE
ZINC01861889
   37    40     0     0     0
SMALL
USER_CHARGES
(3-methoxyphenyl)BLAHone
@<TRIPOS>ATOM
      1 C1         -1.3804   -4.5130   -6.1413 C.3       1 <0>         0.0265
      2 O1         -1.2041   -4.7158   -4.7378 O.3       1 <0>        -0.3168
      3 C2         -0.7821   -3.6495   -4.0086 C.ar      1 <0>         0.1286
      4 C3         -0.5426   -2.4328   -4.6312 C.ar      1 <0>        -0.2022
      5 C4         -0.1133   -1.3506   -3.8879 C.ar      1 <0>        -0.0750
      6 C5          0.0773   -1.4789   -2.5242 C.ar      1 <0>        -0.1538
      7 C6         -0.1611   -2.6899   -1.9015 C.ar      1 <0>        -0.0756
      8 C7         -0.5851   -3.7769   -2.6414 C.ar      1 <0>        -0.1384
      9 C8          0.0477   -2.8261   -0.4152 C.3       1 <0>         0.2008
     10 H1          0.1679   -3.8785   -0.1581 H         1 <0>         0.1182
     11 C9         -1.1648   -2.2494    0.3299 C.3       1 <0>        -0.1644
     12 C10        -1.2487   -0.7714    0.0047 C.2       1 <0>         0.4130
     13 O2         -2.3118   -0.2419   -0.2449 O.2       1 <0>        -0.4467
     14 C11         0.0021   -0.0041    0.0020 C.ar      1 <0>        -0.2421
     15 C12        -0.0169    1.3958    0.0097 C.ar      1 <0>         0.0007
     16 C13         1.1705    2.0952    0.0021 C.ar      1 <0>        -0.0349
     17 C14         2.3907    1.4104   -0.0119 C.ar      1 <0>         0.1186
     18 C15         2.4163    0.0246   -0.0182 C.ar      1 <0>        -0.1889
     19 C16         1.2301   -0.6921   -0.0105 C.ar      1 <0>         0.2801
     20 N1          1.2473   -2.0815   -0.0137 N.pl3     1 <0>        -0.7263
     21 O3          3.4010    2.3261   -0.0167 O.3       1 <0>        -0.3037
     22 C17         2.7952    3.5681   -0.4197 C.3       1 <0>         0.2124
     23 O4          1.4261    3.4375    0.0058 O.3       1 <0>        -0.3054
     24 H2         -1.7188   -5.4408   -6.6027 H         1 <0>         0.1021
     25 H3         -2.1243   -3.7333   -6.3051 H         1 <0>         0.0566
     26 H4         -0.4326   -4.2103   -6.5865 H         1 <0>         0.0560
     27 H5         -0.6913   -2.3321   -5.6961 H         1 <0>         0.1290
     28 H6          0.0732   -0.4034   -4.3720 H         1 <0>         0.1252
     29 H7          0.4126   -0.6315   -1.9447 H         1 <0>         0.1334
     30 H8         -0.7672   -4.7239   -2.1551 H         1 <0>         0.1342
     31 H9         -1.0468   -2.3847    1.3136 H         1 <0>         0.1027
     32 H10        -2.0744   -2.7519    0.0010 H         1 <0>         0.1098
     33 H11        -0.9581    1.9253    0.0171 H         1 <0>         0.1466
     34 H12         3.3618   -0.4973   -0.0288 H         1 <0>         0.1439
     35 H13         2.0503   -2.5582    0.2485 H         1 <0>         0.4136
     36 H14         2.8499    3.6870   -1.5019 H         1 <0>         0.0869
     37 H15         3.2731    4.4099    0.0814 H         1 <0>         0.1348
@<TRIPOS>BOND
     1    1    2 1
     2    1   24 1
     3    1   25 1
     4    1   26 1
     5    2    3 1
     6    3    8 ar
     7    3    4 ar
     8    4    5 ar
     9    4   27 1
    10    5    6 ar
    11    5   28 1
    12    6    7 ar
    13    6   29 1
    14    7    8 ar
    15    7    9 1
    16    8   30 1
    17    9   10 1
    18    9   20 1
    19    9   11 1
    20   11   12 1
    21   11   31 1
    22   11   32 1
    23   12   13 2
    24   12   14 1
    25   14   19 ar
    26   14   15 ar
    27   15   16 ar
    28   15   33 1
    29   16   23 1
    30   16   17 ar
    31   17   18 ar
    32   17   21 1
    33   18   19 ar
    34   18   34 1
    35   19   20 1
    36   20   35 1
    37   21   22 1
    38   22   23 1
    39   22   36 1
    40   22   37 1
@<TRIPOS>MOLECULE
ZINC13779239
   34    36     0     0     0
SMALL
USER_CHARGES
(2R)-2-(3-methoxyphenyl)-2,3-dihydro-1H-quinolin-4-one
@<TRIPOS>ATOM
      1 C1          6.0817    1.0399    0.7354 C.3       1 <0>         0.0266
      2 O1          4.7693    0.4757    0.7713 O.3       1 <0>        -0.3172
      3 C2          3.7425    1.2767    0.3828 C.ar      1 <0>         0.1278
      4 C3          3.9930    2.5793   -0.0247 C.ar      1 <0>        -0.2030
      5 C4          2.9477    3.3915   -0.4186 C.ar      1 <0>        -0.0756
      6 C5          1.6523    2.9075   -0.4077 C.ar      1 <0>        -0.1537
      7 C6          1.4001    1.6100   -0.0027 C.ar      1 <0>        -0.0747
      8 C7          2.4417    0.7953    0.3978 C.ar      1 <0>        -0.1400
      9 C8         -0.0127    1.0858    0.0080 C.3       1 <0>         0.2000
     10 H1          0.0021   -0.0041    0.0020 H         1 <0>         0.1141
     11 C9         -0.7367    1.5837    1.2673 C.3       1 <0>        -0.1665
     12 C10        -0.8046    3.0965    1.1945 C.2       1 <0>         0.4077
     13 O2         -0.5848    3.7824    2.1707 O.2       1 <0>        -0.4508
     14 C11        -1.1446    3.7015   -0.1018 C.ar      1 <0>        -0.2460
     15 C12        -1.5155    5.0456   -0.1895 C.ar      1 <0>        -0.0195
     16 C13        -1.8250    5.5876   -1.4178 C.ar      1 <0>        -0.1852
     17 C14        -1.7697    4.8068   -2.5628 C.ar      1 <0>        -0.0409
     18 C15        -1.4060    3.4776   -2.4915 C.ar      1 <0>        -0.2033
     19 C16        -1.0913    2.9102   -1.2635 C.ar      1 <0>         0.2616
     20 N1         -0.7276    1.5745   -1.1772 N.pl3     1 <0>        -0.7334
     21 H2          6.8059    0.2968    1.0692 H         1 <0>         0.1020
     22 H3          6.3181    1.3455   -0.2838 H         1 <0>         0.0560
     23 H4          6.1221    1.9079    1.3936 H         1 <0>         0.0564
     24 H5          5.0045    2.9577   -0.0334 H         1 <0>         0.1288
     25 H6          3.1422    4.4054   -0.7358 H         1 <0>         0.1255
     26 H7          0.8364    3.5441   -0.7165 H         1 <0>         0.1360
     27 H8          2.2437   -0.2169    0.7181 H         1 <0>         0.1333
     28 H9         -1.6571    1.1940    1.2987 H         1 <0>         0.1004
     29 H10        -0.1835    1.2793    2.1559 H         1 <0>         0.1068
     30 H11        -1.5591    5.6563    0.7003 H         1 <0>         0.1323
     31 H12        -2.1126    6.6262   -1.4893 H         1 <0>         0.1271
     32 H13        -2.0137    5.2437   -3.5199 H         1 <0>         0.1278
     33 H14        -1.3658    2.8792   -3.3897 H         1 <0>         0.1291
     34 H15        -0.9457    0.9642   -1.8988 H         1 <0>         0.4106
@<TRIPOS>BOND
     1    1    2 1
     2    1   21 1
     3    1   22 1
     4    1   23 1
     5    2    3 1
     6    3    8 ar
     7    3    4 ar
     8    4    5 ar
     9    4   24 1
    10    5    6 ar
    11    5   25 1
    12    6    7 ar
    13    6   26 1
    14    7    8 ar
    15    7    9 1
    16    8   27 1
    17    9   10 1
    18    9   20 1
    19    9   11 1
    20   11   12 1
    21   11   28 1
    22   11   29 1
    23   12   13 2
    24   12   14 1
    25   14   19 ar
    26   14   15 ar
    27   15   16 ar
    28   15   30 1
    29   16   17 ar
    30   16   31 1
    31   17   18 ar
    32   17   32 1
    33   18   19 ar
    34   18   33 1
    35   19   20 1
    36   20   34 1
@<TRIPOS>MOLECULE
ZINC16697102
   68    71     0     0     0
SMALL
USER_CHARGES

@<TRIPOS>ATOM
      1 C1          0.1414    1.0953    0.0252 C.3       1 <0>        -0.1879
      2 C2          0.0344   -0.4077    0.2904 C.3       1 <0>        -0.0179
      3 N1         -1.3805   -0.7845    0.4095 N.4       1 <0>        -0.3831
      4 C3         -1.4799   -2.1986    0.7946 C.3       1 <0>        -0.0114
      5 C4         -0.8914   -2.3887    2.1940 C.3       1 <0>        -0.1507
      6 C5         -0.9950   -3.8615    2.5951 C.3       1 <0>         0.0609
      7 O1         -0.4452   -4.0391    3.9021 O.3       1 <0>        -0.3065
      8 C6         -0.4595   -5.2979    4.4111 C.ar      1 <0>         0.1651
      9 C7         -0.9928   -6.3439    3.6526 C.ar      1 <0>        -0.2107
     10 C8         -1.0196   -7.6158    4.1389 C.ar      1 <0>        -0.0238
     11 C9         -0.5074   -7.8823    5.4144 C.ar      1 <0>        -0.2178
     12 C10         0.0354   -6.8287    6.1913 C.ar      1 <0>         0.2289
     13 C11         0.0571   -5.5307    5.6679 C.ar      1 <0>        -0.1455
     14 N2          0.5204   -7.1100    7.4103 N.ar      1 <0>        -0.5500
     15 C12         0.4909   -8.3384    7.8707 C.ar      1 <0>         0.3626
     16 N3         -0.0056   -9.3531    7.1820 N.ar      1 <0>        -0.5775
     17 C13        -0.5106   -9.1853    5.9662 C.ar      1 <0>         0.4884
     18 N4         -1.0254  -10.2523    5.2597 N.pl3     1 <0>        -0.5978
     19 C14        -1.0192  -11.5341    5.8239 C.2       1 <0>         0.2990
     20 C15        -0.5280  -11.8736    7.0950 C.2       1 <0>        -0.2355
     21 C16        -0.7031  -13.2037    7.2657 C.2       1 <0>         0.1068
     22 N5         -1.2824  -13.6919    6.1487 N.pl3     1 <0>        -0.4559
     23 H1         -1.5251  -14.6176    5.9907 H         1 <0>         0.4419
     24 N6         -1.4765  -12.6271    5.2595 N.2       1 <0>        -0.3116
     25 C17        -0.3191  -13.9996    8.4864 C.3       1 <0>        -0.0770
     26 C18        -1.4265  -13.9219    9.5056 C.2       1 <0>         0.5143
     27 O2         -2.4289  -13.2831    9.2644 O.2       1 <0>        -0.5002
     28 N7         -1.3030  -14.5622   10.6851 N.am      1 <0>        -0.6720
     29 C19        -2.2828  -14.4064   11.6717 C.ar      1 <0>         0.1711
     30 C20        -1.9219  -14.3818   13.0129 C.ar      1 <0>        -0.1532
     31 C21        -2.8902  -14.2274   13.9854 C.ar      1 <0>        -0.0700
     32 C22        -4.2191  -14.0976   13.6262 C.ar      1 <0>        -0.1667
     33 C23        -4.5833  -14.1215   12.2902 C.ar      1 <0>         0.1178
     34 C24        -3.6165  -14.2702   11.3118 C.ar      1 <0>        -0.1591
     35 F1         -5.8825  -13.9949   11.9421 F         1 <0>        -0.1354
     36 C25        -2.0519   -0.5800   -0.8810 C.3       1 <0>        -0.0098
     37 C26        -3.5535   -0.8247   -0.7191 C.3       1 <0>         0.0446
     38 O3         -4.1050    0.1610    0.1562 O.3       1 <0>        -0.5793
     39 H2          1.1903    1.3917    0.0323 H         1 <0>         0.1072
     40 H3         -0.2944    1.3246   -0.9472 H         1 <0>         0.0804
     41 H4         -0.3955    1.6404    0.8016 H         1 <0>         0.0817
     42 H5          0.4880   -0.9556   -0.5355 H         1 <0>         0.1307
     43 H6          0.5544   -0.6511    1.2170 H         1 <0>         0.1338
     44 H7         -2.5269   -2.5019    0.7965 H         1 <0>         0.1336
     45 H8         -0.9261   -2.8092    0.0814 H         1 <0>         0.1348
     46 H9          0.1556   -2.0854    2.1921 H         1 <0>         0.1011
     47 H10        -1.4452   -1.7781    2.9071 H         1 <0>         0.1012
     48 H11        -2.0419   -4.1648    2.5970 H         1 <0>         0.0752
     49 H12        -0.4411   -4.4721    1.8820 H         1 <0>         0.0757
     50 H13        -1.3888   -6.1408    2.6686 H         1 <0>         0.1349
     51 H14        -1.4346   -8.4154    3.5432 H         1 <0>         0.1334
     52 H15         0.4712   -4.7175    6.2456 H         1 <0>         0.1508
     53 H16         0.8901   -8.5298    8.8558 H         1 <0>         0.2027
     54 H17        -1.3916  -10.1149    4.3721 H         1 <0>         0.4252
     55 H18        -0.0885  -11.1933    7.8093 H         1 <0>         0.1852
     56 H19        -0.1563  -15.0401    8.2054 H         1 <0>         0.1142
     57 H20         0.5968  -13.5910    8.9133 H         1 <0>         0.1312
     58 H21        -0.5348  -15.1312   10.8499 H         1 <0>         0.4166
     59 H22        -0.8844  -14.4838   13.2950 H         1 <0>         0.1350
     60 H23        -2.6091  -14.2084   15.0280 H         1 <0>         0.1399
     61 H24        -4.9744  -13.9777   14.3888 H         1 <0>         0.1383
     62 H25        -3.8995  -14.2849   10.2696 H         1 <0>         0.1494
     63 H26        -1.8848    0.4425   -1.2196 H         1 <0>         0.1421
     64 H27        -1.6474   -1.2765   -1.6154 H         1 <0>         0.1431
     65 H28        -4.0394   -0.7588   -1.6926 H         1 <0>         0.0960
     66 H29        -3.7166   -1.8167   -0.2980 H         1 <0>         0.0707
     67 H30        -5.0389    0.0226    0.3657 H         1 <0>         0.4093
     68 H31        -1.8228   -0.2123    1.1131 H         1 <0>         0.4316
@<TRIPOS>BOND
     1    1    2 1
     2    1   39 1
     3    1   40 1
     4    1   41 1
     5    2    3 1
     6    2   42 1
     7    2   43 1
     8    3    4 1
     9    3   36 1
    10    3   68 1
    11    4    5 1
    12    4   44 1
    13    4   45 1
    14    5    6 1
    15    5   46 1
    16    5   47 1
    17    6    7 1
    18    6   48 1
    19    6   49 1
    20    7    8 1
    21    8   13 ar
    22    8    9 ar
    23    9   10 ar
    24    9   50 1
    25   10   11 ar
    26   10   51 1
    27   11   17 ar
    28   11   12 ar
    29   12   13 ar
    30   12   14 ar
    31   13   52 1
    32   14   15 ar
    33   15   16 ar
    34   15   53 1
    35   16   17 ar
    36   17   18 1
    37   18   19 1
    38   18   54 1
    39   19   24 2
    40   19   20 1
    41   20   21 2
    42   20   55 1
    43   21   22 1
    44   21   25 1
    45   22   23 1
    46   22   24 1
    47   25   26 1
    48   25   56 1
    49   25   57 1
    50   26   27 2
    51   26   28 am
    52   28   29 1
    53   28   58 1
    54   29   34 ar
    55   29   30 ar
    56   30   31 ar
    57   30   59 1
    58   31   32 ar
    59   31   60 1
    60   32   33 ar
    61   32   61 1
    62   33   34 ar
    63   33   35 1
    64   34   62 1
    65   36   37 1
    66   36   63 1
    67   36   64 1
    68   37   38 1
    69   37   65 1
    70   37   66 1
    71   38   67 1
@<TRIPOS>MOLECULE
ZINC16697102
   68    71     0     0     0
SMALL
USER_CHARGES

@<TRIPOS>ATOM
      1 C1          0.1009    1.0895    0.0671 C.3       1 <0>        -0.1880
      2 C2          0.0005   -0.4150    0.3267 C.3       1 <0>        -0.0178
      3 N1         -1.4127   -0.7982    0.4447 N.4       1 <0>        -0.3831
      4 C3         -1.5060   -2.2142    0.8244 C.3       1 <0>        -0.0114
      5 C4         -0.9163   -2.4070    2.2230 C.3       1 <0>        -0.1510
      6 C5         -1.0135   -3.8818    2.6185 C.3       1 <0>         0.0610
      7 O1         -0.4626   -4.0619    3.9247 O.3       1 <0>        -0.3058
      8 C6         -0.4714   -5.3227    4.4290 C.ar      1 <0>         0.1652
      9 C7         -1.0003   -6.3681    3.6667 C.ar      1 <0>        -0.2079
     10 C8         -1.0216   -7.6420    4.1481 C.ar      1 <0>        -0.0271
     11 C9         -0.5079   -7.9111    5.4225 C.ar      1 <0>        -0.2157
     12 C10         0.0306   -6.8581    6.2032 C.ar      1 <0>         0.2279
     13 C11         0.0466   -5.5580    5.6848 C.ar      1 <0>        -0.1434
     14 N2          0.5172   -7.1419    7.4211 N.ar      1 <0>        -0.5462
     15 C12         0.4930   -8.3722    7.8768 C.ar      1 <0>         0.3627
     16 N3          0.0007   -9.3864    7.1844 N.ar      1 <0>        -0.5729
     17 C13        -0.5054   -9.2161    5.9694 C.ar      1 <0>         0.4842
     18 N4         -1.0159  -10.2829    5.2588 N.pl3     1 <0>        -0.6133
     19 C14        -1.0041  -11.5601    5.8152 C.2       1 <0>         0.2975
     20 C15        -0.5278  -11.8985    7.0451 C.2       1 <0>        -0.2522
     21 C16        -0.7053  -13.2747    7.2096 C.2       1 <0>         0.0931
     22 N5         -1.2647  -13.7522    6.1276 N.2       1 <0>        -0.2441
     23 N6         -1.4709  -12.6946    5.2325 N.pl3     1 <0>        -0.4898
     24 H1         -1.8732  -12.7611    4.3523 H         1 <0>         0.4364
     25 C17        -0.3175  -14.0738    8.4270 C.3       1 <0>        -0.0571
     26 C18        -1.5188  -14.8275    8.9368 C.2       1 <0>         0.5153
     27 O2         -2.5849  -14.7257    8.3676 O.2       1 <0>        -0.4982
     28 N7         -1.4084  -15.6146   10.0253 N.am      1 <0>        -0.6749
     29 C19        -2.5443  -16.2321   10.5602 C.ar      1 <0>         0.1739
     30 C20        -2.6655  -16.3952   11.9344 C.ar      1 <0>        -0.1553
     31 C21        -3.7876  -17.0044   12.4607 C.ar      1 <0>        -0.0709
     32 C22        -4.7909  -17.4530   11.6216 C.ar      1 <0>        -0.1690
     33 C23        -4.6742  -17.2924   10.2511 C.ar      1 <0>         0.1173
     34 C24        -3.5547  -16.6775    9.7191 C.ar      1 <0>        -0.1594
     35 F1         -5.6558  -17.7320    9.4336 F         1 <0>        -0.1360
     36 C25        -2.0854   -0.5918   -0.8449 C.3       1 <0>        -0.0099
     37 C26        -3.5858   -0.8435   -0.6835 C.3       1 <0>         0.0446
     38 O3         -4.1414    0.1365    0.1957 O.3       1 <0>        -0.5792
     39 H2          1.1486    1.3904    0.0751 H         1 <0>         0.1074
     40 H3         -0.3361    1.3206   -0.9043 H         1 <0>         0.0805
     41 H4         -0.4380    1.6293    0.8457 H         1 <0>         0.0817
     42 H5          0.4562   -0.9578   -0.5014 H         1 <0>         0.1308
     43 H6          0.5217   -0.6596    1.2522 H         1 <0>         0.1337
     44 H7         -2.5517   -2.5220    0.8255 H         1 <0>         0.1335
     45 H8         -0.9498   -2.8197    0.1089 H         1 <0>         0.1347
     46 H9          0.1294   -2.0993    2.2220 H         1 <0>         0.1014
     47 H10        -1.4725   -1.8015    2.9385 H         1 <0>         0.1015
     48 H11        -2.0591   -4.1896    2.6196 H         1 <0>         0.0752
     49 H12        -0.4572   -4.4873    1.9030 H         1 <0>         0.0757
     50 H13        -1.3975   -6.1630    2.6836 H         1 <0>         0.1354
     51 H14        -1.4333   -8.4411    3.5496 H         1 <0>         0.1313
     52 H15         0.4574   -4.7453    6.2654 H         1 <0>         0.1520
     53 H16         0.8932   -8.5656    8.8611 H         1 <0>         0.2055
     54 H17        -1.3830  -10.1437    4.3718 H         1 <0>         0.4209
     55 H18        -0.0902  -11.2232    7.7655 H         1 <0>         0.1880
     56 H19         0.4693  -14.7803    8.1624 H         1 <0>         0.1181
     57 H20         0.0452  -13.4002    9.2034 H         1 <0>         0.1229
     58 H21        -0.5415  -15.7530   10.4378 H         1 <0>         0.4158
     59 H22        -1.8824  -16.0460   12.5909 H         1 <0>         0.1343
     60 H23        -3.8814  -17.1310   13.5291 H         1 <0>         0.1388
     61 H24        -5.6670  -17.9297   12.0358 H         1 <0>         0.1372
     62 H25        -3.4650  -16.5484    8.6506 H         1 <0>         0.1513
     63 H26        -1.9227    0.4328   -1.1796 H         1 <0>         0.1424
     64 H27        -1.6780   -1.2838   -1.5820 H         1 <0>         0.1432
     65 H28        -4.0723   -0.7760   -1.6566 H         1 <0>         0.0961
     66 H29        -3.7446   -1.8378   -0.2661 H         1 <0>         0.0704
     67 H30        -5.0746   -0.0067    0.4048 H         1 <0>         0.4093
     68 H31        -1.8573   -0.2307    1.1505 H         1 <0>         0.4316
@<TRIPOS>BOND
     1    1    2 1
     2    1   39 1
     3    1   40 1
     4    1   41 1
     5    2    3 1
     6    2   42 1
     7    2   43 1
     8    3    4 1
     9    3   36 1
    10    3   68 1
    11    4    5 1
    12    4   44 1
    13    4   45 1
    14    5    6 1
    15    5   46 1
    16    5   47 1
    17    6    7 1
    18    6   48 1
    19    6   49 1
    20    7    8 1
    21    8   13 ar
    22    8    9 ar
    23    9   10 ar
    24    9   50 1
    25   10   11 ar
    26   10   51 1
    27   11   17 ar
    28   11   12 ar
    29   12   13 ar
    30   12   14 ar
    31   13   52 1
    32   14   15 ar
    33   15   16 ar
    34   15   53 1
    35   16   17 ar
    36   17   18 1
    37   18   19 1
    38   18   54 1
    39   19   23 1
    40   19   20 2
    41   20   21 1
    42   20   55 1
    43   21   22 2
    44   21   25 1
    45   22   23 1
    46   23   24 1
    47   25   26 1
    48   25   56 1
    49   25   57 1
    50   26   27 2
    51   26   28 am
    52   28   29 1
    53   28   58 1
    54   29   34 ar
    55   29   30 ar
    56   30   31 ar
    57   30   59 1
    58   31   32 ar
    59   31   60 1
    60   32   33 ar
    61   32   61 1
    62   33   34 ar
    63   33   35 1
    64   34   62 1
    65   36   37 1
    66   36   63 1
    67   36   64 1
    68   37   38 1
    69   37   65 1
    70   37   66 1
    71   38   67 1
@<TRIPOS>MOLECULE
ZINC03834198
   55    58     0     0     0
SMALL
USER_CHARGES

@<TRIPOS>ATOM
      1 C1          2.2102    1.3214   -1.5438 C.3       1 <0>        -0.0473
      2 N1          2.0302   -0.1310   -1.4177 N.4       1 <0>        -0.3861
      3 C2          2.8485   -0.8135   -2.4272 C.3       1 <0>        -0.0039
      4 C3          2.6029   -2.3220   -2.3537 C.3       1 <0>        -0.1426
      5 C4          2.9828   -2.8281   -0.9591 C.3       1 <0>        -0.0980
      6 C5          2.1768   -2.0570    0.0901 C.3       1 <0>        -0.1436
      7 C6          2.4382   -0.5583   -0.0740 C.3       1 <0>        -0.0065
      8 C7          2.6653   -4.3210   -0.8526 C.3       1 <0>         0.0553
      9 O1          3.1265   -4.8175    0.4056 O.3       1 <0>        -0.2959
     10 C8          2.9210   -6.1358    0.6612 C.ar      1 <0>         0.1621
     11 C9          2.2972   -6.9233   -0.2811 C.ar      1 <0>        -0.1791
     12 C10         2.0867   -8.2816   -0.0149 C.ar      1 <0>         0.2018
     13 C11         2.5192   -8.8246    1.2204 C.ar      1 <0>        -0.1784
     14 C12         3.1508   -8.0026    2.1612 C.ar      1 <0>        -0.1424
     15 C13         3.3512   -6.6812    1.8787 C.ar      1 <0>         0.1099
     16 O2          3.9702   -5.8850    2.7909 O.3       1 <0>        -0.3030
     17 C14         4.3854   -6.4992    4.0125 C.3       1 <0>         0.0198
     18 C15         2.2930  -10.2009    1.4605 C.ar      1 <0>         0.4667
     19 N2          1.6881  -10.9114    0.5174 N.ar      1 <0>        -0.5768
     20 C16         1.3012  -10.3606   -0.6222 C.ar      1 <0>         0.3478
     21 N3          1.4842   -9.0917   -0.8996 N.ar      1 <0>        -0.5414
     22 N4          2.6915  -10.7885    2.6441 N.pl3     1 <0>        -0.6296
     23 C17         2.5831  -12.1741    2.8088 C.ar      1 <0>         0.1376
     24 C18         2.4560  -12.9987    1.6992 C.ar      1 <0>        -0.1039
     25 C19         2.3491  -14.3660    1.8644 C.ar      1 <0>        -0.0732
     26 C20         2.3685  -14.9152    3.1341 C.ar      1 <0>        -0.0857
     27 C21         2.4949  -14.0974    4.2430 C.ar      1 <0>        -0.1007
     28 C22         2.6081  -12.7284    4.0841 C.ar      1 <0>         0.0686
     29 F1          2.7372  -11.9301    5.1664 F         1 <0>        -0.1332
     30 Br1         2.2212  -16.7875    3.3546 Br        1 <0>        -0.0295
     31 H1          3.2589    1.5727   -1.3848 H         1 <0>         0.1219
     32 H2          1.9075    1.6398   -2.5414 H         1 <0>         0.1242
     33 H3          1.5979    1.8295   -0.7989 H         1 <0>         0.1242
     34 H4          2.5792   -0.4499   -3.4189 H         1 <0>         0.1343
     35 H5          3.9024   -0.6078   -2.2397 H         1 <0>         0.1306
     36 H6          1.5493   -2.5288   -2.5414 H         1 <0>         0.0934
     37 H7          3.2127   -2.8271   -3.1028 H         1 <0>         0.1176
     38 H8          4.0478   -2.6678   -0.7908 H         1 <0>         0.1030
     39 H9          1.1143   -2.2583   -0.0469 H         1 <0>         0.0893
     40 H10         2.4820   -2.3726    1.0878 H         1 <0>         0.1210
     41 H11         3.5008   -0.3580    0.0634 H         1 <0>         0.1299
     42 H12         1.8660   -0.0063    0.6716 H         1 <0>         0.1325
     43 H13         1.5883   -4.4698   -0.9292 H         1 <0>         0.0742
     44 H14         3.1645   -4.8571   -1.6597 H         1 <0>         0.0787
     45 H15         1.9724   -6.4960   -1.2182 H         1 <0>         0.1540
     46 H16         3.4818   -8.4122    3.1042 H         1 <0>         0.1414
     47 H17         4.8638   -5.7549    4.6491 H         1 <0>         0.1093
     48 H18         3.5165   -6.9116    4.5254 H         1 <0>         0.0597
     49 H19         5.0925   -7.2996    3.7947 H         1 <0>         0.0600
     50 H20         0.8133  -10.9840   -1.3569 H         1 <0>         0.2036
     51 H21         3.0467  -10.2411    3.3618 H         1 <0>         0.4241
     52 H22         2.4404  -12.5714    0.7074 H         1 <0>         0.1818
     53 H23         2.2499  -15.0072    1.0010 H         1 <0>         0.1463
     54 H24         2.5094  -14.5289    5.2329 H         1 <0>         0.1515
     55 H25         1.0589   -0.3624   -1.5626 H         1 <0>         0.4246
@<TRIPOS>BOND
     1    1    2 1
     2    1   31 1
     3    1   32 1
     4    1   33 1
     5    2    7 1
     6    2    3 1
     7    2   55 1
     8    3    4 1
     9    3   34 1
    10    3   35 1
    11    4    5 1
    12    4   36 1
    13    4   37 1
    14    5    6 1
    15    5    8 1
    16    5   38 1
    17    6    7 1
    18    6   39 1
    19    6   40 1
    20    7   41 1
    21    7   42 1
    22    8    9 1
    23    8   43 1
    24    8   44 1
    25    9   10 1
    26   10   15 ar
    27   10   11 ar
    28   11   12 ar
    29   11   45 1
    30   12   21 ar
    31   12   13 ar
    32   13   14 ar
    33   13   18 ar
    34   14   15 ar
    35   14   46 1
    36   15   16 1
    37   16   17 1
    38   17   47 1
    39   17   48 1
    40   17   49 1
    41   18   19 ar
    42   18   22 1
    43   19   20 ar
    44   20   21 ar
    45   20   50 1
    46   22   23 1
    47   22   51 1
    48   23   28 ar
    49   23   24 ar
    50   24   25 ar
    51   24   52 1
    52   25   26 ar
    53   25   53 1
    54   26   27 ar
    55   26   30 1
    56   27   28 ar
    57   27   54 1
    58   28   29 1
@<TRIPOS>MOLECULE
ZINC05503297
   32    34     0     0     0
SMALL
USER_CHARGES
2-(3-methoxyphenyl)-1H-quinolin-4-one
@<TRIPOS>ATOM
      1 C1          6.3105   -4.6199   -0.0810 C.3       1 <0>         0.0250
      2 O1          5.0157   -4.0155   -0.0659 O.3       1 <0>        -0.3126
      3 C2          4.9687   -2.6573   -0.0595 C.ar      1 <0>         0.1339
      4 C3          6.1468   -1.9221   -0.0677 C.ar      1 <0>        -0.1910
      5 C4          6.1053   -0.5403   -0.0604 C.ar      1 <0>        -0.0735
      6 C5          4.8925    0.1179   -0.0453 C.ar      1 <0>        -0.1424
      7 C6          3.7029   -0.6125   -0.0374 C.ar      1 <0>        -0.0378
      8 C7          3.7465   -2.0074   -0.0395 C.ar      1 <0>        -0.1170
      9 C8          2.4020    0.0888   -0.0208 C.2       1 <0>         0.2483
     10 C9          1.2557   -0.6488   -0.0134 C.2       1 <0>        -0.2989
     11 C10         0.0021   -0.0041    0.0020 C.2       1 <0>         0.4177
     12 O2         -1.0355   -0.6470    0.0081 O.2       1 <0>        -0.4937
     13 C11        -0.0179    1.4699    0.0101 C.ar      1 <0>        -0.1987
     14 C12        -1.2193    2.1785    0.0197 C.ar      1 <0>        -0.0289
     15 C13        -1.1997    3.5454    0.0321 C.ar      1 <0>        -0.1584
     16 C14         0.0057    4.2334    0.0247 C.ar      1 <0>        -0.0547
     17 C15         1.2035    3.5526    0.0096 C.ar      1 <0>        -0.1747
     18 C16         1.2060    2.1607    0.0021 C.ar      1 <0>         0.1961
     19 N1          2.3882    1.4529   -0.0138 N.pl3     1 <0>        -0.6089
     20 H1          3.2296    1.9355   -0.0199 H         1 <0>         0.4165
     21 H2          6.8484   -4.3040   -0.9749 H         1 <0>         0.0582
     22 H3          6.8657   -4.3118    0.8050 H         1 <0>         0.0582
     23 H4          6.2051   -5.7047   -0.0847 H         1 <0>         0.1048
     24 H5          7.0989   -2.4318   -0.0795 H         1 <0>         0.1353
     25 H6          7.0250    0.0259   -0.0661 H         1 <0>         0.1344
     26 H7          4.8637    1.1975   -0.0393 H         1 <0>         0.1239
     27 H8          2.8296   -2.5780   -0.0294 H         1 <0>         0.1459
     28 H9          1.3079   -1.7275   -0.0197 H         1 <0>         0.1545
     29 H10        -2.1610    1.6495    0.0212 H         1 <0>         0.1395
     30 H11        -2.1297    4.0944    0.0432 H         1 <0>         0.1318
     31 H12         0.0048    5.3133    0.0304 H         1 <0>         0.1336
     32 H13         2.1364    4.0966    0.0032 H         1 <0>         0.1334
@<TRIPOS>BOND
     1    1    2 1
     2    1   21 1
     3    1   22 1
     4    1   23 1
     5    2    3 1
     6    3    8 ar
     7    3    4 ar
     8    4    5 ar
     9    4   24 1
    10    5    6 ar
    11    5   25 1
    12    6    7 ar
    13    6   26 1
    14    7    8 ar
    15    7    9 1
    16    8   27 1
    17    9   19 1
    18    9   10 2
    19   10   11 1
    20   10   28 1
    21   11   12 2
    22   11   13 1
    23   13   18 ar
    24   13   14 ar
    25   14   15 ar
    26   14   29 1
    27   15   16 ar
    28   15   30 1
    29   16   17 ar
    30   16   31 1
    31   17   18 ar
    32   17   32 1
    33   18   19 1
    34   19   20 1
@<TRIPOS>MOLECULE
ZINC14951176
   39    42     0     0     0
SMALL
USER_CHARGES

@<TRIPOS>ATOM
      1 C1          0.2405    1.0255    0.8302 C.ar      1 <0>        -0.0645
      2 C2          1.4224    1.7334    0.7710 C.ar      1 <0>        -0.1488
      3 C3          2.3671    1.4303   -0.1967 C.ar      1 <0>         0.1270
      4 C4          2.1300    0.4154   -1.1103 C.ar      1 <0>        -0.1484
      5 C5          0.9516   -0.2992   -1.0607 C.ar      1 <0>        -0.0503
      6 C6         -0.0037    0.0016   -0.0874 C.ar      1 <0>        -0.0633
      7 C7         -1.2678   -0.7602   -0.0291 C.2       1 <0>         0.1046
      8 C8         -1.3961   -2.1162   -0.0863 C.2       1 <0>         0.0796
      9 N1         -2.7456   -2.4073    0.0017 N.pl3     1 <0>        -0.5519
     10 C9         -3.4195   -1.2472    0.1100 C.2       1 <0>         0.4661
     11 C10        -4.8730   -1.1131    0.2269 C.2       1 <0>        -0.2712
     12 C11        -5.4545    0.1603    0.3285 C.2       1 <0>        -0.0131
     13 C12        -6.8063    0.2847    0.4372 C.2       1 <0>        -0.2432
     14 C13        -7.6177   -0.8599    0.4477 C.2       1 <0>         0.3274
     15 O1         -8.9418   -0.7377    0.5542 O.2       1 <0>        -0.6199
     16 C14        -7.0368   -2.1329    0.3456 C.2       1 <0>        -0.2432
     17 C15        -5.6854   -2.2577    0.2315 C.2       1 <0>        -0.0132
     18 N2         -2.5363   -0.2302    0.0993 N.pl3     1 <0>        -0.5537
     19 C16        -0.2980   -3.0933   -0.2185 C.ar      1 <0>         0.0029
     20 C17         0.8460   -3.0046    0.5859 C.ar      1 <0>        -0.1375
     21 C18         1.8471   -3.9391    0.4288 C.ar      1 <0>         0.1110
     22 N3          1.7384   -4.9058   -0.4634 N.ar      1 <0>        -0.4697
     23 C19         0.6787   -5.0262   -1.2411 C.ar      1 <0>         0.1111
     24 C20        -0.3725   -4.1394   -1.1479 C.ar      1 <0>        -0.1541
     25 F1          3.5233    2.1271   -0.2501 F         1 <0>        -0.1285
     26 H1         -0.4930    1.2596    1.5875 H         1 <0>         0.1388
     27 H2          1.6122    2.5258    1.4800 H         1 <0>         0.1474
     28 H3          2.8693    0.1839   -1.8628 H         1 <0>         0.1469
     29 H4          0.7677   -1.0896   -1.7733 H         1 <0>         0.1375
     30 H5         -3.1383   -3.2941   -0.0126 H         1 <0>         0.4530
     31 H6         -4.8300    1.0414    0.3209 H         1 <0>         0.1049
     32 H7         -7.2538    1.2645    0.5158 H         1 <0>         0.1221
     33 H8         -7.6616   -3.0138    0.3533 H         1 <0>         0.1221
     34 H9         -5.2386   -3.2374    0.1489 H         1 <0>         0.1046
     35 H10        -2.7542    0.7126    0.1673 H         1 <0>         0.4532
     36 H11         0.9421   -2.2159    1.3174 H         1 <0>         0.1420
     37 H12         2.7328   -3.8793    1.0439 H         1 <0>         0.1658
     38 H13         0.6328   -5.8333   -1.9573 H         1 <0>         0.1659
     39 H14        -1.2383   -4.2467   -1.7845 H         1 <0>         0.1405
@<TRIPOS>BOND
     1    1    6 ar
     2    1    2 ar
     3    1   26 1
     4    2    3 ar
     5    2   27 1
     6    3    4 ar
     7    3   25 1
     8    4    5 ar
     9    4   28 1
    10    5    6 ar
    11    5   29 1
    12    6    7 1
    13    7   18 1
    14    7    8 2
    15    8    9 1
    16    8   19 1
    17    9   10 1
    18    9   30 1
    19   10   11 2
    20   10   18 1
    21   11   17 1
    22   11   12 1
    23   12   13 2
    24   12   31 1
    25   13   14 1
    26   13   32 1
    27   14   15 2
    28   14   16 1
    29   16   17 2
    30   16   33 1
    31   17   34 1
    32   18   35 1
    33   19   24 ar
    34   19   20 ar
    35   20   21 ar
    36   20   36 1
    37   21   22 ar
    38   21   37 1
    39   22   23 ar
    40   23   24 ar
    41   23   38 1
    42   24   39 1
@<TRIPOS>MOLECULE
ZINC14951176
   40    43     0     0     0
SMALL
USER_CHARGES

@<TRIPOS>ATOM
      1 C1          0.2405    1.0255    0.8302 C.ar      1 <0>        -0.0528
      2 C2          1.4224    1.7334    0.7710 C.ar      1 <0>        -0.1439
      3 C3          2.3671    1.4303   -0.1967 C.ar      1 <0>         0.1411
      4 C4          2.1300    0.4154   -1.1103 C.ar      1 <0>        -0.1508
      5 C5          0.9516   -0.2992   -1.0607 C.ar      1 <0>        -0.0597
      6 C6         -0.0037    0.0016   -0.0874 C.ar      1 <0>        -0.0905
      7 C7         -1.2678   -0.7602   -0.0291 C.2       1 <0>         0.1717
      8 C8         -1.3961   -2.1162   -0.0863 C.2       1 <0>         0.0049
      9 N1         -2.7456   -2.4073    0.0017 N.pl3     1 <0>        -0.5619
     10 C9         -3.4195   -1.2472    0.1100 C.2       1 <0>         0.4672
     11 C10        -4.8730   -1.1131    0.2269 C.2       1 <0>        -0.2599
     12 C11        -5.6849   -2.2580    0.2378 C.2       1 <0>        -0.0193
     13 C12        -7.0367   -2.1330    0.3465 C.2       1 <0>        -0.2271
     14 C13        -7.6177   -0.8599    0.4475 C.2       1 <0>         0.3291
     15 O1         -8.9418   -0.7377    0.5539 O.2       1 <0>        -0.5899
     16 C14        -6.8064    0.2847    0.4370 C.2       1 <0>        -0.2265
     17 C15        -5.4541    0.1600    0.3338 C.2       1 <0>        -0.0193
     18 N2         -2.5363   -0.2302    0.0993 N.pl3     1 <0>        -0.5609
     19 C16        -0.2980   -3.0933   -0.2185 C.ar      1 <0>         0.1131
     20 C17         0.8460   -3.0046    0.5859 C.ar      1 <0>        -0.1113
     21 C18         1.8471   -3.9391    0.4288 C.ar      1 <0>         0.1475
     22 N3          1.7384   -4.9058   -0.4634 N.ar      1 <0>        -0.4453
     23 C19         0.6789   -5.0260   -1.2413 C.ar      1 <0>         0.1502
     24 C20        -0.3725   -4.1394   -1.1479 C.ar      1 <0>        -0.1247
     25 F1          3.5233    2.1271   -0.2501 F         1 <0>        -0.1206
     26 H1         -0.4930    1.2596    1.5875 H         1 <0>         0.1448
     27 H2          1.6122    2.5258    1.4800 H         1 <0>         0.1545
     28 H3          2.8693    0.1839   -1.8628 H         1 <0>         0.1503
     29 H4          0.7677   -1.0896   -1.7733 H         1 <0>         0.1343
     30 H5         -3.1383   -3.2941   -0.0126 H         1 <0>         0.4541
     31 H6         -5.2377   -3.2379    0.1597 H         1 <0>         0.1066
     32 H7         -7.6615   -3.0138    0.3545 H         1 <0>         0.1278
     33 H8         -7.2539    1.2645    0.5152 H         1 <0>         0.1286
     34 H9         -4.8293    1.0409    0.3299 H         1 <0>         0.1087
     35 H10        -2.7542    0.7126    0.1673 H         1 <0>         0.4588
     36 H11         0.9421   -2.2159    1.3174 H         1 <0>         0.1893
     37 H12         2.7328   -3.8793    1.0439 H         1 <0>         0.2181
     38 H13         0.6331   -5.8328   -1.9578 H         1 <0>         0.2182
     39 H14        -1.2383   -4.2467   -1.7845 H         1 <0>         0.1884
     40 H15         2.4602   -5.5480   -0.5503 H         1 <0>         0.4572
@<TRIPOS>BOND
     1    1    6 ar
     2    1    2 ar
     3    1   26 1
     4    2    3 ar
     5    2   27 1
     6    3    4 ar
     7    3   25 1
     8    4    5 ar
     9    4   28 1
    10    5    6 ar
    11    5   29 1
    12    6    7 1
    13    7   18 1
    14    7    8 2
    15    8    9 1
    16    8   19 1
    17    9   10 1
    18    9   30 1
    19   10   11 2
    20   10   18 1
    21   11   17 1
    22   11   12 1
    23   12   13 2
    24   12   31 1
    25   13   14 1
    26   13   32 1
    27   14   15 2
    28   14   16 1
    29   16   17 2
    30   16   33 1
    31   17   34 1
    32   18   35 1
    33   19   24 ar
    34   19   20 ar
    35   20   21 ar
    36   20   36 1
    37   21   22 ar
    38   21   37 1
    39   22   23 ar
    40   22   40 1
    41   23   24 ar
    42   23   38 1
    43   24   39 1
@<TRIPOS>MOLECULE
ZINC14951176
   39    42     0     0     0
SMALL
USER_CHARGES

@<TRIPOS>ATOM
      1 C1         -0.0169    1.3921    0.0097 C.ar      1 <0>        -0.0566
      2 C2          1.1683    2.0955    0.0022 C.ar      1 <0>        -0.1420
      3 C3          2.3804    1.4175   -0.0135 C.ar      1 <0>         0.1205
      4 C4          2.4035    0.0288   -0.0217 C.ar      1 <0>        -0.1413
      5 C5          1.2227   -0.6820   -0.0137 C.ar      1 <0>        -0.0915
      6 C6          0.0021   -0.0041    0.0020 C.ar      1 <0>        -0.0305
      7 C7         -1.2663   -0.7622    0.0101 C.2       1 <0>         0.2668
      8 N1         -2.4688   -0.2344    0.0239 N.2       1 <0>        -0.4516
      9 H1         -0.6429   -2.7598   -0.0166 H         1 <0>         0.4248
     10 C8         -3.3891   -1.2133    0.0276 C.2       1 <0>         0.0607
     11 C9         -2.7170   -2.4244    0.0153 C.2       1 <0>         0.0509
     12 N2         -1.3752   -2.1239   -0.0017 N.pl3     1 <0>        -0.5528
     13 C10        -3.3214   -3.7709    0.0147 C.ar      1 <0>        -0.0389
     14 C11        -4.3834   -4.0632    0.8738 C.ar      1 <0>        -0.0572
     15 C12        -4.9440   -5.3230    0.8688 C.ar      1 <0>        -0.1473
     16 C13        -4.4555   -6.2985    0.0139 C.ar      1 <0>         0.1118
     17 C14        -3.4017   -6.0145   -0.8405 C.ar      1 <0>        -0.1493
     18 C15        -2.8374   -4.7564   -0.8492 C.ar      1 <0>        -0.0780
     19 F1         -5.0084   -7.5311    0.0136 F         1 <0>        -0.1337
     20 C16        -4.8582   -1.0303    0.0430 C.ar      1 <0>         0.0400
     21 C17        -5.7004   -1.9173   -0.6371 C.ar      1 <0>        -0.1586
     22 C18        -7.0629   -1.7095   -0.5964 C.ar      1 <0>         0.1014
     23 N3         -7.5737   -0.6921    0.0713 N.ar      1 <0>        -0.4840
     24 C19        -6.8154    0.1672    0.7258 C.ar      1 <0>         0.1006
     25 C20        -5.4433    0.0310    0.7427 C.ar      1 <0>        -0.1465
     26 O1          3.5463    2.1144   -0.0214 O.3       1 <0>        -0.4977
     27 H2         -0.9589    1.9200    0.0260 H         1 <0>         0.1437
     28 H3          1.1545    3.1754    0.0081 H         1 <0>         0.1381
     29 H4          3.3480   -0.4948   -0.0346 H         1 <0>         0.1359
     30 H5          1.2415   -1.7618   -0.0204 H         1 <0>         0.1230
     31 H6         -4.7644   -3.3041    1.5409 H         1 <0>         0.1365
     32 H7         -5.7651   -5.5501    1.5325 H         1 <0>         0.1435
     33 H8         -3.0248   -6.7788   -1.5040 H         1 <0>         0.1419
     34 H9         -2.0195   -4.5348   -1.5187 H         1 <0>         0.1326
     35 H10        -5.2894   -2.7518   -1.1857 H         1 <0>         0.1340
     36 H11        -7.7211   -2.3883   -1.1184 H         1 <0>         0.1574
     37 H12        -7.2760    0.9856    1.2591 H         1 <0>         0.1586
     38 H13        -4.8292    0.7351    1.2845 H         1 <0>         0.1395
     39 H14         3.8927    2.3115    0.8597 H         1 <0>         0.3954
@<TRIPOS>BOND
     1    1    6 ar
     2    1    2 ar
     3    1   27 1
     4    2    3 ar
     5    2   28 1
     6    3    4 ar
     7    3   26 1
     8    4    5 ar
     9    4   29 1
    10    5    6 ar
    11    5   30 1
    12    6    7 1
    13    7    8 2
    14    7   12 1
    15    8   10 1
    16    9   12 1
    17   10   20 1
    18   10   11 2
    19   11   13 1
    20   11   12 1
    21   13   18 ar
    22   13   14 ar
    23   14   15 ar
    24   14   31 1
    25   15   16 ar
    26   15   32 1
    27   16   17 ar
    28   16   19 1
    29   17   18 ar
    30   17   33 1
    31   18   34 1
    32   20   25 ar
    33   20   21 ar
    34   21   22 ar
    35   21   35 1
    36   22   23 ar
    37   22   36 1
    38   23   24 ar
    39   24   25 ar
    40   24   37 1
    41   25   38 1
    42   26   39 1
@<TRIPOS>MOLECULE
ZINC14951176
   40    43     0     0     0
SMALL
USER_CHARGES

@<TRIPOS>ATOM
      1 C1         -0.0079    1.3560    0.4128 C.ar      1 <0>        -0.0502
      2 C2          1.1789    2.0446    0.5411 C.ar      1 <0>        -0.1379
      3 C3          2.3872    1.3600    0.5181 C.ar      1 <0>         0.1743
      4 C4          2.4048   -0.0205    0.3656 C.ar      1 <0>        -0.1372
      5 C5          1.2223   -0.7164    0.2363 C.ar      1 <0>        -0.0529
      6 C6          0.0054   -0.0319    0.2597 C.ar      1 <0>        -0.1114
      7 C7         -1.2648   -0.7743    0.1224 C.cat     1 <0>         0.3974
      8 N1         -2.5103   -0.2175    0.1240 N.pl3     1 <0>        -0.5055
      9 H1         -2.7195    0.7253    0.2141 H         1 <0>         0.4639
     10 C8         -3.4150   -1.2456   -0.0267 C.2       1 <0>         0.1188
     11 C9         -2.6710   -2.4104   -0.1160 C.2       1 <0>         0.1124
     12 N2         -1.3744   -2.0755   -0.0265 N.pl3     1 <0>        -0.4709
     13 C10        -3.2098   -3.7802   -0.2862 C.ar      1 <0>        -0.0876
     14 C11        -4.1834   -4.0340   -1.2519 C.ar      1 <0>        -0.0424
     15 C12        -4.6816   -5.3110   -1.4069 C.ar      1 <0>        -0.1470
     16 C13        -4.2164   -6.3406   -0.6047 C.ar      1 <0>         0.1433
     17 C14        -3.2491   -6.0935    0.3562 C.ar      1 <0>        -0.1478
     18 C15        -2.7406   -4.8209    0.5148 C.ar      1 <0>        -0.0599
     19 F1         -4.7080   -7.5895   -0.7596 F         1 <0>        -0.1208
     20 C16        -4.8840   -1.1288   -0.0821 C.ar      1 <0>        -0.0205
     21 C17        -5.7034   -1.9735    0.6798 C.ar      1 <0>        -0.1289
     22 C18        -7.0715   -1.8287    0.5974 C.ar      1 <0>         0.1171
     23 N3         -7.6107   -0.9116   -0.1841 N.ar      1 <0>        -0.4578
     24 C19        -6.8767   -0.0959   -0.9180 C.ar      1 <0>         0.1165
     25 C20        -5.5005   -0.1662   -0.8936 C.ar      1 <0>        -0.1481
     26 O1          3.5548    2.0423    0.6448 O.3       1 <0>        -0.4899
     27 H2         -0.9472    1.8885    0.4352 H         1 <0>         0.1371
     28 H3          1.1694    3.1181    0.6592 H         1 <0>         0.1540
     29 H4          3.3464   -0.5492    0.3479 H         1 <0>         0.1543
     30 H5          1.2369   -1.7897    0.1170 H         1 <0>         0.1372
     31 H6         -4.5471   -3.2320   -1.8771 H         1 <0>         0.1402
     32 H7         -5.4356   -5.5085   -2.1544 H         1 <0>         0.1527
     33 H8         -2.8897   -6.8992    0.9791 H         1 <0>         0.1527
     34 H9         -1.9838   -4.6301    1.2612 H         1 <0>         0.1391
     35 H10        -5.2693   -2.7263    1.3211 H         1 <0>         0.1460
     36 H11        -7.7114   -2.4748    1.1801 H         1 <0>         0.1719
     37 H12        -7.3614    0.6395   -1.5430 H         1 <0>         0.1713
     38 H13        -4.9063    0.5074   -1.4932 H         1 <0>         0.1422
     39 H14         3.8545    2.1428    1.5587 H         1 <0>         0.4115
     40 H15        -0.6320   -2.6987   -0.0633 H         1 <0>         0.4629
@<TRIPOS>BOND
     1    1    6 ar
     2    1    2 ar
     3    1   27 1
     4    2    3 ar
     5    2   28 1
     6    3    4 ar
     7    3   26 1
     8    4    5 ar
     9    4   29 1
    10    5    6 ar
    11    5   30 1
    12    6    7 1
    13    7   12 2
    14    7    8 1
    15    8    9 1
    16    8   10 1
    17   10   11 2
    18   10   20 1
    19   11   12 1
    20   11   13 1
    21   12   40 1
    22   13   18 ar
    23   13   14 ar
    24   14   15 ar
    25   14   31 1
    26   15   16 ar
    27   15   32 1
    28   16   17 ar
    29   16   19 1
    30   17   18 ar
    31   17   33 1
    32   18   34 1
    33   20   25 ar
    34   20   21 ar
    35   21   22 ar
    36   21   35 1
    37   22   23 ar
    38   22   36 1
    39   23   24 ar
    40   24   25 ar
    41   24   37 1
    42   25   38 1
    43   26   39 1
@<TRIPOS>MOLECULE
ZINC14951176
   40    43     0     0     0
SMALL
USER_CHARGES

@<TRIPOS>ATOM
      1 C1         -0.0268    1.3873   -0.2487 C.ar      1 <0>        -0.0533
      2 C2          1.1507    2.0881   -0.3954 C.ar      1 <0>        -0.1372
      3 C3          2.3508    1.4075   -0.5560 C.ar      1 <0>         0.1741
      4 C4          2.3694    0.0187   -0.5693 C.ar      1 <0>        -0.1379
      5 C5          1.1963   -0.6894   -0.4227 C.ar      1 <0>        -0.0501
      6 C6         -0.0123   -0.0089   -0.2611 C.ar      1 <0>        -0.1113
      7 C7         -1.2726   -0.7643   -0.1040 C.cat     1 <0>         0.3964
      8 N1         -1.3739   -2.1224    0.0021 N.pl3     1 <0>        -0.5087
      9 H1         -0.6406   -2.7573   -0.0113 H         1 <0>         0.4641
     10 C8         -2.7098   -2.4213    0.1324 C.2       1 <0>         0.1445
     11 C9         -3.3862   -1.2129    0.1003 C.2       1 <0>         0.0865
     12 N2         -2.4734   -0.2367   -0.0386 N.pl3     1 <0>        -0.4668
     13 C10        -4.8514   -1.0295    0.2063 C.ar      1 <0>        -0.0181
     14 C11        -5.5878   -1.6830    1.2008 C.ar      1 <0>        -0.1314
     15 C12        -6.9507   -1.4834    1.2636 C.ar      1 <0>         0.1177
     16 N3         -7.5598   -0.6900    0.4025 N.ar      1 <0>        -0.4587
     17 C13        -6.9031   -0.0552   -0.5501 C.ar      1 <0>         0.1173
     18 C14        -5.5375   -0.1932   -0.6817 C.ar      1 <0>        -0.1516
     19 C15        -3.3053   -3.7640    0.2776 C.ar      1 <0>        -0.0905
     20 C16        -4.4063   -4.1307   -0.5000 C.ar      1 <0>        -0.0398
     21 C17        -4.9583   -5.3865   -0.3599 C.ar      1 <0>        -0.1481
     22 C18        -4.4232   -6.2840    0.5507 C.ar      1 <0>         0.1454
     23 C19        -3.3311   -5.9257    1.3253 C.ar      1 <0>        -0.1491
     24 C20        -2.7664   -4.6752    1.1893 C.ar      1 <0>        -0.0562
     25 F1         -4.9685   -7.5129    0.6840 F         1 <0>        -0.1204
     26 O1          3.5092    2.1019   -0.7007 O.3       1 <0>        -0.4899
     27 H2         -0.9590    1.9172   -0.1198 H         1 <0>         0.1369
     28 H3          1.1404    3.1680   -0.3860 H         1 <0>         0.1542
     29 H4          3.3045   -0.5068   -0.6950 H         1 <0>         0.1540
     30 H5          1.2115   -1.7693   -0.4335 H         1 <0>         0.1375
     31 H6         -5.0961   -2.3342    1.9084 H         1 <0>         0.1454
     32 H7         -7.5277   -1.9833    2.0275 H         1 <0>         0.1715
     33 H8         -7.4422    0.5842   -1.2336 H         1 <0>         0.1711
     34 H9         -5.0059    0.3326   -1.4610 H         1 <0>         0.1417
     35 H10        -4.8245   -3.4319   -1.2094 H         1 <0>         0.1408
     36 H11        -5.8095   -5.6711   -0.9606 H         1 <0>         0.1531
     37 H12        -2.9189   -6.6290    2.0337 H         1 <0>         0.1530
     38 H13        -1.9125   -4.3987    1.7900 H         1 <0>         0.1398
     39 H14         3.9581    2.2964    0.1334 H         1 <0>         0.4114
     40 H15        -2.6712    0.7118   -0.0857 H         1 <0>         0.4627
@<TRIPOS>BOND
     1    1    6 ar
     2    1    2 ar
     3    1   27 1
     4    2    3 ar
     5    2   28 1
     6    3    4 ar
     7    3   26 1
     8    4    5 ar
     9    4   29 1
    10    5    6 ar
    11    5   30 1
    12    6    7 1
    13    7   12 2
    14    7    8 1
    15    8    9 1
    16    8   10 1
    17   10   11 2
    18   10   19 1
    19   11   12 1
    20   11   13 1
    21   12   40 1
    22   13   18 ar
    23   13   14 ar
    24   14   15 ar
    25   14   31 1
    26   15   16 ar
    27   15   32 1
    28   16   17 ar
    29   17   18 ar
    30   17   33 1
    31   18   34 1
    32   19   24 ar
    33   19   20 ar
    34   20   21 ar
    35   20   35 1
    36   21   22 ar
    37   21   36 1
    38   22   23 ar
    39   22   25 1
    40   23   24 ar
    41   23   37 1
    42   24   38 1
    43   26   39 1
@<TRIPOS>MOLECULE
ZINC27439698
   59    62     0     0     0
SMALL
USER_CHARGES

@<TRIPOS>ATOM
      1 C1         -0.2063    1.0844    0.8125 C.2       1 <0>        -0.0780
      2 C2         -0.0916   -0.1284    0.2785 C.2       1 <0>        -0.2217
      3 C3          1.1892   -0.8472    0.3546 C.2       1 <0>         0.5464
      4 O1          2.1435   -0.3327    0.9059 O.2       1 <0>        -0.5301
      5 N1          1.3054   -2.0761   -0.1864 N.am      1 <0>        -0.6549
      6 C4          2.5517   -2.7129   -0.2160 C.ar      1 <0>         0.1200
      7 C5          3.7048   -1.9595   -0.1827 C.ar      1 <0>        -0.0579
      8 C6          4.9490   -2.5997   -0.2120 C.ar      1 <0>        -0.1974
      9 C7          5.0154   -4.0138   -0.2753 C.ar      1 <0>         0.2129
     10 C8          3.8313   -4.7603   -0.3083 C.ar      1 <0>        -0.1947
     11 C9          2.6164   -4.1137   -0.2734 C.ar      1 <0>         0.1622
     12 O2          1.4681   -4.8389   -0.3002 O.3       1 <0>        -0.3093
     13 C10         1.5999   -6.2606   -0.3586 C.3       1 <0>         0.0588
     14 C11         0.2106   -6.9010   -0.3813 C.3       1 <0>        -0.1156
     15 C12         0.3517   -8.4232   -0.4438 C.3       1 <0>         0.0578
     16 N2         -0.9822   -9.0382   -0.4657 N.3       1 <0>        -0.5360
     17 C13        -1.6880   -8.8108    0.8038 C.3       1 <0>         0.0125
     18 C14        -3.0921   -9.4148    0.7161 C.3       1 <0>         0.0626
     19 O3         -2.9885  -10.8047    0.3955 O.3       1 <0>        -0.3850
     20 C15        -2.3071  -11.0626   -0.8351 C.3       1 <0>         0.0628
     21 C16        -0.8951  -10.4753   -0.7631 C.3       1 <0>         0.0171
     22 N3          6.2221   -4.6015   -0.3018 N.ar      1 <0>        -0.5452
     23 C17         7.3156   -3.8777   -0.2694 C.ar      1 <0>         0.3493
     24 N4          7.3023   -2.5556   -0.2097 N.ar      1 <0>        -0.5859
     25 C18         6.1642   -1.8746   -0.1796 C.ar      1 <0>         0.4714
     26 N5          6.1650   -0.4957   -0.1182 N.pl3     1 <0>        -0.6328
     27 C19         7.3694    0.2084   -0.2227 C.ar      1 <0>         0.1581
     28 C20         7.5013    1.4536    0.3785 C.ar      1 <0>        -0.1169
     29 C21         8.6911    2.1472    0.2750 C.ar      1 <0>        -0.1176
     30 C22         9.7524    1.6027   -0.4280 C.ar      1 <0>         0.0901
     31 C23         9.6235    0.3609   -1.0292 C.ar      1 <0>        -0.0524
     32 C24         8.4363   -0.3392   -0.9225 C.ar      1 <0>        -0.0856
     33 Cl1        10.9555   -0.3188   -1.9109 Cl        1 <0>        -0.0424
     34 F1         10.9152    2.2833   -0.5284 F         1 <0>        -0.1264
     35 H1          0.6411    1.5413    1.3020 H         1 <0>         0.1166
     36 H2         -1.1456    1.6141    0.7527 H         1 <0>         0.1209
     37 H3         -0.9390   -0.5853   -0.2110 H         1 <0>         0.1323
     38 H4          0.5255   -2.5194   -0.5554 H         1 <0>         0.4201
     39 H5          3.6489   -0.8820   -0.1348 H         1 <0>         0.1596
     40 H6          3.8708   -5.8385   -0.3565 H         1 <0>         0.1517
     41 H7          2.1429   -6.5383   -1.2620 H         1 <0>         0.0720
     42 H8          2.1473   -6.6110    0.5165 H         1 <0>         0.0691
     43 H9         -0.3323   -6.6233    0.5221 H         1 <0>         0.0760
     44 H10        -0.3367   -6.5506   -1.2564 H         1 <0>         0.0860
     45 H11         0.8947   -8.7010   -1.3473 H         1 <0>         0.0821
     46 H12         0.8990   -8.7736    0.4312 H         1 <0>         0.0409
     47 H13        -1.1377   -9.2854    1.6162 H         1 <0>         0.0448
     48 H14        -1.7636   -7.7398    0.9914 H         1 <0>         0.0895
     49 H15        -3.5986   -9.2990    1.6743 H         1 <0>         0.0993
     50 H16        -3.6604   -8.9035   -0.0609 H         1 <0>         0.0609
     51 H17        -2.2459  -12.1385   -0.9988 H         1 <0>         0.1001
     52 H18        -2.8525  -10.5991   -1.6572 H         1 <0>         0.0612
     53 H19        -0.3918  -10.6192   -1.7193 H         1 <0>         0.0886
     54 H20        -0.3321  -10.9764    0.0243 H         1 <0>         0.0452
     55 H21         8.2696   -4.3834   -0.2921 H         1 <0>         0.1993
     56 H22         5.3306   -0.0149   -0.0027 H         1 <0>         0.4275
     57 H23         6.6738    1.8794    0.9265 H         1 <0>         0.1431
     58 H24         8.7936    3.1154    0.7424 H         1 <0>         0.1506
     59 H25         8.3373   -1.3092   -1.3869 H         1 <0>         0.1663
@<TRIPOS>BOND
     1    1    2 2
     2    1   35 1
     3    1   36 1
     4    2    3 1
     5    2   37 1
     6    3    4 2
     7    3    5 am
     8    5    6 1
     9    5   38 1
    10    6   11 ar
    11    6    7 ar
    12    7    8 ar
    13    7   39 1
    14    8   25 ar
    15    8    9 ar
    16    9   10 ar
    17    9   22 ar
    18   10   11 ar
    19   10   40 1
    20   11   12 1
    21   12   13 1
    22   13   14 1
    23   13   41 1
    24   13   42 1
    25   14   15 1
    26   14   43 1
    27   14   44 1
    28   15   16 1
    29   15   45 1
    30   15   46 1
    31   16   21 1
    32   16   17 1
    33   17   18 1
    34   17   47 1
    35   17   48 1
    36   18   19 1
    37   18   49 1
    38   18   50 1
    39   19   20 1
    40   20   21 1
    41   20   51 1
    42   20   52 1
    43   21   53 1
    44   21   54 1
    45   22   23 ar
    46   23   24 ar
    47   23   55 1
    48   24   25 ar
    49   25   26 1
    50   26   27 1
    51   26   56 1
    52   27   32 ar
    53   27   28 ar
    54   28   29 ar
    55   28   57 1
    56   29   30 ar
    57   29   58 1
    58   30   31 ar
    59   30   34 1
    60   31   32 ar
    61   31   33 1
    62   32   59 1
@<TRIPOS>MOLECULE
ZINC00007280
   44    45     0     0     0
SMALL
USER_CHARGES
2-methoxy-5-[2-(3,4,5-trimethoxyphenyl)vinyl]aniline
@<TRIPOS>ATOM
      1 C1         -2.5809   -5.3225   -3.5973 C.3       1 <0>         0.0309
      2 O1         -1.6526   -6.2060   -2.9651 O.3       1 <0>        -0.3218
      3 C2         -0.5627   -5.6410   -2.3806 C.ar      1 <0>         0.0563
      4 C3         -0.3436   -4.2769   -2.4990 C.ar      1 <0>        -0.1638
      5 C4          0.7602   -3.6980   -1.9082 C.ar      1 <0>        -0.1070
      6 C5          1.6621   -4.4864   -1.1881 C.ar      1 <0>        -0.0542
      7 C6          1.4448   -5.8621   -1.0727 C.ar      1 <0>        -0.1587
      8 C7          0.3318   -6.4348   -1.6629 C.ar      1 <0>         0.1913
      9 N1          0.1074   -7.8115   -1.5455 N.pl3     1 <0>        -0.8755
     10 C8          2.8422   -3.8696   -0.5573 C.2       1 <0>        -0.0885
     11 C9          2.7483   -2.6476   -0.0080 C.2       1 <0>        -0.1182
     12 C10         1.4293   -2.0102    0.1500 C.ar      1 <0>         0.0184
     13 C11         0.3145   -2.7822    0.4882 C.ar      1 <0>        -0.2068
     14 C12        -0.9222   -2.1807    0.6362 C.ar      1 <0>         0.1481
     15 C13        -1.0561   -0.8077    0.4540 C.ar      1 <0>         0.0270
     16 C14         0.0508   -0.0370    0.1121 C.ar      1 <0>         0.1466
     17 C15         1.2904   -0.6323   -0.0375 C.ar      1 <0>        -0.2270
     18 O2         -0.0851    1.3038   -0.0698 O.3       1 <0>        -0.3035
     19 C16         1.0937    2.0347   -0.4136 C.3       1 <0>         0.0247
     20 O3         -2.2729   -0.2184    0.6054 O.3       1 <0>        -0.3126
     21 C17        -3.1001   -0.1302   -0.5565 C.3       1 <0>         0.0360
     22 O4         -2.0076   -2.9312    0.9653 O.3       1 <0>        -0.3016
     23 C18        -1.7812   -4.3165    1.2335 C.3       1 <0>         0.0258
     24 H1         -2.9093   -4.5682   -2.8823 H         1 <0>         0.0543
     25 H2         -2.0989   -4.8347   -4.4445 H         1 <0>         0.0536
     26 H3         -3.4427   -5.8908   -3.9474 H         1 <0>         0.0988
     27 H4         -1.0389   -3.6661   -3.0556 H         1 <0>         0.1260
     28 H5          0.9279   -2.6352   -2.0025 H         1 <0>         0.1227
     29 H6          2.1412   -6.4758   -0.5206 H         1 <0>         0.1296
     30 H7         -0.6702   -8.2135   -1.9632 H         1 <0>         0.4031
     31 H8          0.7296   -8.3634   -1.0464 H         1 <0>         0.3980
     32 H9          3.7827   -4.4001   -0.5367 H         1 <0>         0.1302
     33 H10         3.6397   -2.1321    0.3179 H         1 <0>         0.1322
     34 H11         0.4185   -3.8473    0.6334 H         1 <0>         0.1397
     35 H12         2.1499   -0.0330   -0.2992 H         1 <0>         0.1364
     36 H13         0.8462    3.0899   -0.5292 H         1 <0>         0.1026
     37 H14         1.8357    1.9201    0.3766 H         1 <0>         0.0581
     38 H15         1.4984    1.6517   -1.3504 H         1 <0>         0.0566
     39 H16        -2.5875    0.4493   -1.3243 H         1 <0>         0.0432
     40 H17        -3.3049   -1.1321   -0.9336 H         1 <0>         0.0426
     41 H18        -4.0389    0.3596   -0.2978 H         1 <0>         0.0916
     42 H19        -2.7348   -4.8115    1.4171 H         1 <0>         0.1005
     43 H20        -1.2918   -4.7774    0.3756 H         1 <0>         0.0574
     44 H21        -1.1444   -4.4170    2.1124 H         1 <0>         0.0565
@<TRIPOS>BOND
     1    1    2 1
     2    1   24 1
     3    1   25 1
     4    1   26 1
     5    2    3 1
     6    3    8 ar
     7    3    4 ar
     8    4    5 ar
     9    4   27 1
    10    5    6 ar
    11    5   28 1
    12    6    7 ar
    13    6   10 1
    14    7    8 ar
    15    7   29 1
    16    8    9 1
    17    9   30 1
    18    9   31 1
    19   10   11 2
    20   10   32 1
    21   11   12 1
    22   11   33 1
    23   12   17 ar
    24   12   13 ar
    25   13   14 ar
    26   13   34 1
    27   14   15 ar
    28   14   22 1
    29   15   16 ar
    30   15   20 1
    31   16   17 ar
    32   16   18 1
    33   17   35 1
    34   18   19 1
    35   19   36 1
    36   19   37 1
    37   19   38 1
    38   20   21 1
    39   21   39 1
    40   21   40 1
    41   21   41 1
    42   22   23 1
    43   23   42 1
    44   23   43 1
    45   23   44 1
@<TRIPOS>MOLECULE
ZINC00968516
   30    32     0     0     0
SMALL
USER_CHARGES
(2R)-2-phenyl-2,3-dihydro-1H-quinolin-4-one
@<TRIPOS>ATOM
      1 C1          3.6045    2.5865    4.6038 C.ar      1 <0>        -0.1147
      2 C2          4.7609    3.0000    3.9692 C.ar      1 <0>        -0.1199
      3 C3          4.7601    3.2178    2.6041 C.ar      1 <0>        -0.1076
      4 C4          3.6029    3.0222    1.8737 C.ar      1 <0>        -0.1145
      5 C5          2.4452    2.6138    2.5091 C.ar      1 <0>        -0.1165
      6 C6          2.4475    2.3905    3.8733 C.ar      1 <0>        -0.1170
      7 C7          3.6019    3.2601    0.3856 C.3       1 <0>         0.1996
      8 H1          4.4463    3.8947    0.1166 H         1 <0>         0.1114
      9 C8          3.7111    1.9182   -0.3529 C.3       1 <0>        -0.1666
     10 C9          2.4812    1.1004   -0.0114 C.2       1 <0>         0.4075
     11 O1          2.5632   -0.0830    0.2431 O.2       1 <0>        -0.4511
     12 C10         1.1853    1.7949    0.0004 C.ar      1 <0>        -0.2475
     13 C11        -0.0126    1.0758    0.0080 C.ar      1 <0>        -0.0194
     14 C12        -1.2126    1.7526    0.0173 C.ar      1 <0>        -0.1853
     15 C13        -1.2356    3.1393    0.0309 C.ar      1 <0>        -0.0405
     16 C14        -0.0606    3.8629    0.0226 C.ar      1 <0>        -0.2040
     17 C15         1.1604    3.2013    0.0061 C.ar      1 <0>         0.2614
     18 N1          2.3489    3.9162   -0.0068 N.pl3     1 <0>        -0.7344
     19 H2          3.6052    2.4163    5.6703 H         1 <0>         0.1230
     20 H3          5.6649    3.1531    4.5400 H         1 <0>         0.1246
     21 H4          5.6635    3.5412    2.1084 H         1 <0>         0.1245
     22 H5          1.5400    2.4652    1.9391 H         1 <0>         0.1336
     23 H6          1.5441    2.0671    4.3691 H         1 <0>         0.1220
     24 H7          3.7590    2.0829   -1.3381 H         1 <0>         0.0993
     25 H8          4.6081    1.3904   -0.0289 H         1 <0>         0.1055
     26 H9          0.0021   -0.0041    0.0020 H         1 <0>         0.1324
     27 H10        -2.1406    1.2001    0.0182 H         1 <0>         0.1273
     28 H11        -2.1827    3.6581    0.0433 H         1 <0>         0.1280
     29 H12        -0.0904    4.9425    0.0292 H         1 <0>         0.1290
     30 H13         2.3521    4.8484   -0.2750 H         1 <0>         0.4099
@<TRIPOS>BOND
     1    1    6 ar
     2    1    2 ar
     3    1   19 1
     4    2    3 ar
     5    2   20 1
     6    3    4 ar
     7    3   21 1
     8    4    5 ar
     9    4    7 1
    10    5    6 ar
    11    5   22 1
    12    6   23 1
    13    7    8 1
    14    7   18 1
    15    7    9 1
    16    9   10 1
    17    9   24 1
    18    9   25 1
    19   10   11 2
    20   10   12 1
    21   12   17 ar
    22   12   13 ar
    23   13   14 ar
    24   13   26 1
    25   14   15 ar
    26   14   27 1
    27   15   16 ar
    28   15   28 1
    29   16   17 ar
    30   16   29 1
    31   17   18 1
    32   18   30 1
@<TRIPOS>MOLECULE
ZINC00968517
   30    32     0     0     0
SMALL
USER_CHARGES
(2S)-2-phenyl-2,3-dihydro-1H-quinolin-4-one
@<TRIPOS>ATOM
      1 C1         -1.7447    5.5764    4.6658 C.ar      1 <0>        -0.1147
      2 C2         -2.0181    6.7806    4.0446 C.ar      1 <0>        -0.1198
      3 C3         -1.8543    6.9061    2.6777 C.ar      1 <0>        -0.1077
      4 C4         -1.4171    5.8273    1.9321 C.ar      1 <0>        -0.1145
      5 C5         -1.1488    4.6216    2.5525 C.ar      1 <0>        -0.1165
      6 C6         -1.3075    4.4976    3.9201 C.ar      1 <0>        -0.1170
      7 C7         -1.2390    5.9640    0.4419 C.3       1 <0>         0.1996
      8 H1         -1.1450    7.0180    0.1804 H         1 <0>         0.1115
      9 C8         -2.4538    5.3615   -0.2789 C.3       1 <0>        -0.1668
     10 C9         -2.5007    3.8825    0.0504 C.2       1 <0>         0.4076
     11 O1         -3.5469    3.3310    0.3208 O.2       1 <0>        -0.4510
     12 C10        -1.2309    3.1415    0.0303 C.ar      1 <0>        -0.2474
     13 C11        -1.2171    1.7445    0.0173 C.ar      1 <0>        -0.0193
     14 C12        -0.0126    1.0758    0.0080 C.ar      1 <0>        -0.1854
     15 C13         1.1813    1.7817    0.0003 C.ar      1 <0>        -0.0406
     16 C14         1.1833    3.1617    0.0064 C.ar      1 <0>        -0.2041
     17 C15        -0.0194    3.8562    0.0199 C.ar      1 <0>         0.2613
     18 N1         -0.0321    5.2431    0.0200 N.pl3     1 <0>        -0.7342
     19 H2         -1.8729    5.4782    5.7336 H         1 <0>         0.1230
     20 H3         -2.3600    7.6234    4.6271 H         1 <0>         0.1246
     21 H4         -2.0683    7.8469    2.1923 H         1 <0>         0.1245
     22 H5         -0.8114    3.7775    1.9693 H         1 <0>         0.1335
     23 H6         -1.0943    3.5566    4.4054 H         1 <0>         0.1220
     24 H7         -2.3576    5.4975   -1.2649 H         1 <0>         0.0992
     25 H8         -3.3670    5.8459    0.0668 H         1 <0>         0.1055
     26 H9         -2.1451    1.1920    0.0186 H         1 <0>         0.1324
     27 H10         0.0021   -0.0041    0.0020 H         1 <0>         0.1274
     28 H11         2.1190    1.2460   -0.0108 H         1 <0>         0.1280
     29 H12         2.1189    3.7010    0.0010 H         1 <0>         0.1290
     30 H13         0.7558    5.7360   -0.2580 H         1 <0>         0.4100
@<TRIPOS>BOND
     1    1    6 ar
     2    1    2 ar
     3    1   19 1
     4    2    3 ar
     5    2   20 1
     6    3    4 ar
     7    3   21 1
     8    4    5 ar
     9    4    7 1
    10    5    6 ar
    11    5   22 1
    12    6   23 1
    13    7    8 1
    14    7   18 1
    15    7    9 1
    16    9   10 1
    17    9   24 1
    18    9   25 1
    19   10   11 2
    20   10   12 1
    21   12   17 ar
    22   12   13 ar
    23   13   14 ar
    24   13   26 1
    25   14   15 ar
    26   14   27 1
    27   15   16 ar
    28   15   28 1
    29   16   17 ar
    30   16   29 1
    31   17   18 1
    32   18   30 1
@<TRIPOS>MOLECULE
ZINC03817105
   62    65     0     0     0
SMALL
USER_CHARGES
2-methoxy-N-[3-[4-[3-methyl-4-[(6-methyl-3-pyridyl)oxy]phenyl]aminoquinazolin-6-yl]prop-2-enyl]acetamide
@<TRIPOS>ATOM
      1 C1        -11.0375   12.0334   -7.2046 C.3       1 <0>        -0.1017
      2 C2         -9.5320   11.9996   -7.2611 C.ar      1 <0>         0.0932
      3 C3         -8.8602   12.8880   -8.0803 C.ar      1 <0>        -0.1328
      4 C4         -7.4762   12.8510   -8.1269 C.ar      1 <0>        -0.0994
      5 C5         -6.8128   11.9135   -7.3409 C.ar      1 <0>         0.0664
      6 C6         -7.5569   11.0518   -6.5481 C.ar      1 <0>         0.0388
      7 N1         -8.8732   11.1230   -6.5289 N.ar      1 <0>        -0.4512
      8 O1         -5.4560   11.8394   -7.3540 O.3       1 <0>        -0.2470
      9 C7         -4.8557   10.9740   -6.4943 C.ar      1 <0>         0.0572
     10 C8         -4.4184   11.4190   -5.2548 C.ar      1 <0>        -0.0943
     11 C9         -3.8135   10.5396   -4.3793 C.ar      1 <0>        -0.1022
     12 C10        -3.6322    9.2116   -4.7439 C.ar      1 <0>         0.1634
     13 C11        -4.0700    8.7669   -5.9844 C.ar      1 <0>        -0.1357
     14 C12        -4.6801    9.6465   -6.8569 C.ar      1 <0>        -0.0670
     15 C13        -5.1558    9.1640   -8.2030 C.3       1 <0>        -0.1185
     16 N2         -3.0137    8.3207   -3.8590 N.pl3     1 <0>        -0.6371
     17 C14        -2.0241    8.7683   -3.0095 C.ar      1 <0>         0.4668
     18 C15        -1.4621    7.9109   -2.0305 C.ar      1 <0>        -0.1868
     19 C16        -1.8744    6.5843   -1.8848 C.ar      1 <0>        -0.0597
     20 C17        -1.2897    5.7953   -0.9049 C.ar      1 <0>        -0.0684
     21 C18        -0.2860    6.3202   -0.0742 C.ar      1 <0>        -0.0681
     22 C19         0.1284    7.6083   -0.2086 C.ar      1 <0>        -0.1020
     23 C20        -0.4488    8.4309   -1.1875 C.ar      1 <0>         0.1902
     24 N3         -0.0675    9.7063   -1.3521 N.ar      1 <0>        -0.5433
     25 C21        -0.6233   10.4542   -2.2756 C.ar      1 <0>         0.3464
     26 N4         -1.5723   10.0131   -3.0857 N.ar      1 <0>        -0.5802
     27 C22        -1.7212    4.3921   -0.7380 C.2       1 <0>        -0.0925
     28 C23        -1.1613    3.6325    0.1938 C.2       1 <0>        -0.1638
     29 C24        -1.6014    2.2013    0.3640 C.3       1 <0>         0.1510
     30 N5         -0.4369    1.3176    0.2678 N.am      1 <0>        -0.7292
     31 C25        -0.5909   -0.0157    0.3905 C.2       1 <0>         0.5128
     32 O2         -1.6927   -0.4835    0.5855 O.2       1 <0>        -0.5149
     33 C26         0.6061   -0.9253    0.2853 C.3       1 <0>         0.0429
     34 O3          0.1889   -2.2823    0.4480 O.3       1 <0>        -0.3671
     35 C27         1.2538   -3.2316    0.3650 C.3       1 <0>         0.0291
     36 H1        -11.4446   11.3637   -7.9622 H         1 <0>         0.0774
     37 H2        -11.3714   11.7118   -6.2181 H         1 <0>         0.0766
     38 H3        -11.3855   13.0491   -7.3927 H         1 <0>         0.0751
     39 H4         -9.4080   13.6027   -8.6766 H         1 <0>         0.1440
     40 H5         -6.9254   13.5332   -8.7575 H         1 <0>         0.1451
     41 H6         -7.0525   10.3174   -5.9376 H         1 <0>         0.1559
     42 H7         -4.5554   12.4527   -4.9732 H         1 <0>         0.1367
     43 H8         -3.4776   10.8851   -3.4127 H         1 <0>         0.1462
     44 H9         -3.9337    7.7334   -6.2666 H         1 <0>         0.1343
     45 H10        -6.1855    8.8160   -8.1212 H         1 <0>         0.0740
     46 H11        -5.1048    9.9824   -8.9211 H         1 <0>         0.0747
     47 H12        -4.5211    8.3445   -8.5403 H         1 <0>         0.0740
     48 H13        -3.2812    7.3884   -3.8434 H         1 <0>         0.4225
     49 H14        -2.6429    6.1782   -2.5258 H         1 <0>         0.1297
     50 H15         0.1628    5.6922    0.6812 H         1 <0>         0.1374
     51 H16         0.9015    7.9976    0.4373 H         1 <0>         0.1443
     52 H17        -0.2915   11.4767   -2.3793 H         1 <0>         0.1989
     53 H18        -2.4926    3.9850   -1.3748 H         1 <0>         0.1261
     54 H19        -0.3898    4.0396    0.8306 H         1 <0>         0.1239
     55 H20        -2.3169    1.9458   -0.4176 H         1 <0>         0.0754
     56 H21        -2.0706    2.0791    1.3402 H         1 <0>         0.0825
     57 H22         0.4443    1.6918    0.1118 H         1 <0>         0.4030
     58 H23         1.0707   -0.8027   -0.6931 H         1 <0>         0.0815
     59 H24         1.3255   -0.6705    1.0636 H         1 <0>         0.0818
     60 H25         1.9866   -3.0248    1.1449 H         1 <0>         0.0453
     61 H26         0.8552   -4.2373    0.4985 H         1 <0>         0.0934
     62 H27         1.7318   -3.1570   -0.6118 H         1 <0>         0.0451
@<TRIPOS>BOND
     1    1    2 1
     2    1   36 1
     3    1   37 1
     4    1   38 1
     5    2    7 ar
     6    2    3 ar
     7    3    4 ar
     8    3   39 1
     9    4    5 ar
    10    4   40 1
    11    5    6 ar
    12    5    8 1
    13    6    7 ar
    14    6   41 1
    15    8    9 1
    16    9   14 ar
    17    9   10 ar
    18   10   11 ar
    19   10   42 1
    20   11   12 ar
    21   11   43 1
    22   12   13 ar
    23   12   16 1
    24   13   14 ar
    25   13   44 1
    26   14   15 1
    27   15   45 1
    28   15   46 1
    29   15   47 1
    30   16   17 1
    31   16   48 1
    32   17   26 ar
    33   17   18 ar
    34   18   23 ar
    35   18   19 ar
    36   19   20 ar
    37   19   49 1
    38   20   21 ar
    39   20   27 1
    40   21   22 ar
    41   21   50 1
    42   22   23 ar
    43   22   51 1
    44   23   24 ar
    45   24   25 ar
    46   25   26 ar
    47   25   52 1
    48   27   28 2
    49   27   53 1
    50   28   29 1
    51   28   54 1
    52   29   30 1
    53   29   55 1
    54   29   56 1
    55   30   31 am
    56   30   57 1
    57   31   32 2
    58   31   33 1
    59   33   34 1
    60   33   58 1
    61   33   59 1
    62   34   35 1
    63   35   60 1
    64   35   61 1
    65   35   62 1
@<TRIPOS>MOLECULE
ZINC01546066
   52    54     0     0     0
SMALL
USER_CHARGES

@<TRIPOS>ATOM
      1 C1          1.3190    1.4185    0.8998 C.3       1 <0>         0.0308
      2 O1          1.1221    0.0121    0.7412 O.3       1 <0>        -0.3842
      3 C2          1.6336   -0.7719    1.8209 C.3       1 <0>         0.0626
      4 C3          1.3686   -2.2534    1.5456 C.3       1 <0>         0.0560
      5 O2          2.1105   -2.6643    0.3955 O.3       1 <0>        -0.2877
      6 C4          1.9861   -3.9631    0.0122 C.ar      1 <0>         0.1163
      7 C5          1.1727   -4.8014    0.7206 C.ar      1 <0>        -0.1508
      8 C6          1.0439   -6.1386    0.3269 C.ar      1 <0>        -0.1822
      9 C7          1.7562   -6.6146   -0.8018 C.ar      1 <0>         0.2018
     10 C8          2.5842   -5.7378   -1.5132 C.ar      1 <0>        -0.1867
     11 C9          2.6894   -4.4253   -1.1088 C.ar      1 <0>         0.1692
     12 O3          3.4878   -3.5711   -1.8004 O.3       1 <0>        -0.2847
     13 C10         4.1782   -4.1019   -2.9333 C.3       1 <0>         0.0544
     14 C11         5.0210   -3.0002   -3.5791 C.3       1 <0>         0.0626
     15 O4          6.0448   -2.5894   -2.6708 O.3       1 <0>        -0.3848
     16 C12         6.8933   -1.5581   -3.1792 C.3       1 <0>         0.0309
     17 N1          1.6146   -7.9009   -1.1583 N.ar      1 <0>        -0.5426
     18 C13         0.8310   -8.6986   -0.4725 C.ar      1 <0>         0.3422
     19 N2          0.1465   -8.2987    0.5874 N.ar      1 <0>        -0.5807
     20 C14         0.2146   -7.0483    1.0253 C.ar      1 <0>         0.4641
     21 N3         -0.5043   -6.6451    2.1328 N.pl3     1 <0>        -0.6417
     22 C15        -1.2223   -7.5837    2.8797 C.ar      1 <0>         0.1534
     23 C16        -2.4417   -7.2339    3.4483 C.ar      1 <0>        -0.1365
     24 C17        -3.1548   -8.1581    4.1879 C.ar      1 <0>        -0.0976
     25 C18        -2.6612   -9.4349    4.3666 C.ar      1 <0>        -0.1098
     26 C19        -1.4382   -9.7960    3.7995 C.ar      1 <0>         0.0290
     27 C20        -0.7210   -8.8652    3.0488 C.ar      1 <0>        -0.0846
     28 C21        -0.9239  -11.1197    3.9839 C.1       1 <0>        -0.1518
     29 C22        -0.5023  -12.2049    4.1351 C.1       1 <0>        -0.1689
     30 H1          2.3858    1.6300    0.9737 H         1 <0>         0.0438
     31 H2          0.9034    1.9430    0.0394 H         1 <0>         0.0882
     32 H3          0.8182    1.7554    1.8074 H         1 <0>         0.0421
     33 H4          2.7069   -0.6059    1.9138 H         1 <0>         0.0642
     34 H5          1.1392   -0.4804    2.7476 H         1 <0>         0.0738
     35 H6          1.6782   -2.8442    2.4078 H         1 <0>         0.0797
     36 H7          0.3045   -2.4047    1.3647 H         1 <0>         0.0731
     37 H8          0.6320   -4.4344    1.5804 H         1 <0>         0.1376
     38 H9          3.1329   -6.0870   -2.3754 H         1 <0>         0.1546
     39 H10         4.8282   -4.9164   -2.6138 H         1 <0>         0.0783
     40 H11         3.4545   -4.4770   -3.6569 H         1 <0>         0.0849
     41 H12         5.4773   -3.3804   -4.4931 H         1 <0>         0.0752
     42 H13         4.3841   -2.1485   -3.8181 H         1 <0>         0.0638
     43 H14         6.2953   -0.6764   -3.4098 H         1 <0>         0.0434
     44 H15         7.6433   -1.3027   -2.4306 H         1 <0>         0.0879
     45 H16         7.3884   -1.9084   -4.0848 H         1 <0>         0.0424
     46 H17         0.7401   -9.7278   -0.7869 H         1 <0>         0.1966
     47 H18        -0.5113   -5.7106    2.3927 H         1 <0>         0.4197
     48 H19        -2.8329   -6.2365    3.3119 H         1 <0>         0.1281
     49 H20        -4.1012   -7.8805    4.6278 H         1 <0>         0.1331
     50 H21        -3.2213  -10.1542    4.9456 H         1 <0>         0.1284
     51 H22         0.2239   -9.1405    2.6039 H         1 <0>         0.1386
     52 H23        -0.1252  -13.1754    4.2703 H         1 <0>         0.2249
@<TRIPOS>BOND
     1    1    2 1
     2    1   30 1
     3    1   31 1
     4    1   32 1
     5    2    3 1
     6    3    4 1
     7    3   33 1
     8    3   34 1
     9    4    5 1
    10    4   35 1
    11    4   36 1
    12    5    6 1
    13    6   11 ar
    14    6    7 ar
    15    7    8 ar
    16    7   37 1
    17    8   20 ar
    18    8    9 ar
    19    9   10 ar
    20    9   17 ar
    21   10   11 ar
    22   10   38 1
    23   11   12 1
    24   12   13 1
    25   13   14 1
    26   13   39 1
    27   13   40 1
    28   14   15 1
    29   14   41 1
    30   14   42 1
    31   15   16 1
    32   16   43 1
    33   16   44 1
    34   16   45 1
    35   17   18 ar
    36   18   19 ar
    37   18   46 1
    38   19   20 ar
    39   20   21 1
    40   21   22 1
    41   21   47 1
    42   22   27 ar
    43   22   23 ar
    44   23   24 ar
    45   23   48 1
    46   24   25 ar
    47   24   49 1
    48   25   26 ar
    49   25   50 1
    50   26   27 ar
    51   26   28 1
    52   27   51 1
    53   28   29 3
    54   29   52 1
@<TRIPOS>MOLECULE
ZINC01550477
   67    71     0     0     0
SMALL
USER_CHARGES
N-[3-chloro-4-[(3-fluorophenyl)methoxy]phenyl]-6-[5-(2-methylsulfonylethylaminomethyl)-2-furyl]-quinazolin-4-amine
@<TRIPOS>ATOM
      1 C1         -7.2164   11.0372    3.0195 C.3       1 <0>        -0.6448
      2 S1         -6.7571   10.7093    1.2955 S.o2      1 <0>         2.4326
      3 O1         -5.7431   11.6303    0.9175 O.2       1 <0>        -0.9163
      4 O2         -7.9456   10.6335    0.5203 O.2       1 <0>        -0.9157
      5 C2         -6.0233    9.0527    1.3844 C.3       1 <0>        -0.6787
      6 C3         -5.5746    8.6180   -0.0122 C.3       1 <0>         0.0096
      7 C4         -4.5371    6.8253   -1.2661 C.3       1 <0>         0.0949
      8 C5         -3.9345    5.4487   -1.1526 C.2       1 <0>        -0.1220
      9 C6         -4.6045    4.2857   -1.2709 C.2       1 <0>        -0.1227
     10 C7         -3.6659    3.2489   -1.0969 C.2       1 <0>        -0.2041
     11 C8         -2.4620    3.8428   -0.8796 C.2       1 <0>         0.0998
     12 O3         -2.6414    5.1774   -0.9104 O.3       1 <0>        -0.1656
     13 C9         -1.1810    3.1454   -0.6443 C.ar      1 <0>        -0.0604
     14 C10        -1.1417    1.7409   -0.6382 C.ar      1 <0>        -0.0521
     15 C11         0.0237    1.0763   -0.4177 C.ar      1 <0>        -0.0937
     16 C12         1.2099    1.7947   -0.2040 C.ar      1 <0>         0.2083
     17 C13         1.1822    3.2116   -0.2139 C.ar      1 <0>        -0.1977
     18 C14        -0.0232    3.8817   -0.4358 C.ar      1 <0>        -0.0338
     19 C15         2.3978    3.9066    0.0047 C.ar      1 <0>         0.4722
     20 N1          3.4987    3.1947    0.2074 N.ar      1 <0>        -0.5774
     21 C16         3.4754    1.8717    0.2076 C.ar      1 <0>         0.3649
     22 N2          2.3802    1.1762    0.0109 N.ar      1 <0>        -0.5439
     23 N3          2.4351    5.2852    0.0073 N.pl3     1 <0>        -0.6315
     24 C17         3.6620    5.9520    0.1043 C.ar      1 <0>         0.1153
     25 C18         3.7486    7.1497    0.8022 C.ar      1 <0>        -0.0952
     26 C19         4.9602    7.8046    0.9022 C.ar      1 <0>        -0.1798
     27 C20         6.0888    7.2728    0.2963 C.ar      1 <0>         0.1358
     28 C21         6.0027    6.0786   -0.4059 C.ar      1 <0>        -0.0497
     29 C22         4.7920    5.4192   -0.5019 C.ar      1 <0>        -0.0586
     30 Cl1         7.4158    5.4135   -1.1639 Cl        1 <0>        -0.0401
     31 O4          7.2805    7.9214    0.3906 O.3       1 <0>        -0.2928
     32 C23         7.2964    9.1452    1.1283 C.3       1 <0>         0.1010
     33 C24         8.6911    9.7160    1.1245 C.ar      1 <0>        -0.0726
     34 C25         9.0796   10.5846    0.1214 C.ar      1 <0>        -0.1044
     35 C26        10.3585   11.1089    0.1166 C.ar      1 <0>        -0.0912
     36 C27        11.2506   10.7653    1.1149 C.ar      1 <0>        -0.1400
     37 C28        10.8628    9.8957    2.1198 C.ar      1 <0>         0.0987
     38 C29         9.5794    9.3754    2.1266 C.ar      1 <0>        -0.1290
     39 F1         11.7337    9.5594    3.0963 F         1 <0>        -0.1351
     40 H1         -6.3247   11.0049    3.6455 H         1 <0>         0.1345
     41 H2         -7.6757   12.0230    3.0919 H         1 <0>         0.1448
     42 H3         -7.9248   10.2806    3.3569 H         1 <0>         0.1349
     43 H4         -6.7627    8.3477    1.7643 H         1 <0>         0.1573
     44 H5         -5.1626    9.0720    2.0529 H         1 <0>         0.1564
     45 H6         -4.8352    9.3230   -0.3922 H         1 <0>         0.1496
     46 H7         -6.4354    8.5988   -0.6807 H         1 <0>         0.1509
     47 H8         -3.7904    7.5178   -1.6547 H         1 <0>         0.1492
     48 H9         -5.3906    6.7936   -1.9433 H         1 <0>         0.1621
     49 H10        -5.6609    4.1699   -1.4629 H         1 <0>         0.1659
     50 H11        -3.8645    2.1878   -1.1292 H         1 <0>         0.1672
     51 H12        -2.0502    1.1817   -0.8068 H         1 <0>         0.1429
     52 H13         0.0373   -0.0036   -0.4115 H         1 <0>         0.1546
     53 H14        -0.0537    4.9612   -0.4455 H         1 <0>         0.1311
     54 H15         4.3999    1.3401    0.3779 H         1 <0>         0.2050
     55 H16         1.6111    5.7928   -0.0582 H         1 <0>         0.4195
     56 H17         2.8691    7.5668    1.2701 H         1 <0>         0.1330
     57 H18         5.0280    8.7339    1.4483 H         1 <0>         0.1439
     58 H19         4.7246    4.4902   -1.0485 H         1 <0>         0.1514
     59 H20         6.6114    9.8566    0.6669 H         1 <0>         0.0789
     60 H21         6.9846    8.9545    2.1552 H         1 <0>         0.0774
     61 H22         8.3831   10.8540   -0.6588 H         1 <0>         0.1323
     62 H23        10.6608   11.7876   -0.6673 H         1 <0>         0.1388
     63 H24        12.2497   11.1753    1.1111 H         1 <0>         0.1403
     64 H25         9.2743    8.7004    2.9126 H         1 <0>         0.1379
     65 N4         -4.9794    7.2708    0.0688 N.4       1 <0>        -0.5165
     66 H26        -5.6793    6.6125    0.4308 H         1 <0>         0.4365
     67 H27        -4.1720    7.2947    0.7026 H         1 <0>         0.4363
@<TRIPOS>BOND
     1    1    2 1
     2    1   40 1
     3    1   41 1
     4    1   42 1
     5    2    3 2
     6    2    4 2
     7    2    5 1
     8    5    6 1
     9    5   43 1
    10    5   44 1
    11    6   45 1
    12    6   46 1
    13    6   65 1
    14    7    8 1
    15    7   47 1
    16    7   48 1
    17    7   65 1
    18    8   12 1
    19    8    9 2
    20    9   10 1
    21    9   49 1
    22   10   11 2
    23   10   50 1
    24   11   12 1
    25   11   13 1
    26   13   18 ar
    27   13   14 ar
    28   14   15 ar
    29   14   51 1
    30   15   16 ar
    31   15   52 1
    32   16   22 ar
    33   16   17 ar
    34   17   18 ar
    35   17   19 ar
    36   18   53 1
    37   19   20 ar
    38   19   23 1
    39   20   21 ar
    40   21   22 ar
    41   21   54 1
    42   23   24 1
    43   23   55 1
    44   24   29 ar
    45   24   25 ar
    46   25   26 ar
    47   25   56 1
    48   26   27 ar
    49   26   57 1
    50   27   28 ar
    51   27   31 1
    52   28   29 ar
    53   28   30 1
    54   29   58 1
    55   31   32 1
    56   32   33 1
    57   32   59 1
    58   32   60 1
    59   33   38 ar
    60   33   34 ar
    61   34   35 ar
    62   34   61 1
    63   35   36 ar
    64   35   62 1
    65   36   37 ar
    66   36   63 1
    67   37   38 ar
    68   37   39 1
    69   38   64 1
    70   65   66 1
    71   65   67 1
@<TRIPOS>MOLECULE
ZINC00602803
   57    59     0     0     0
SMALL
USER_CHARGES

@<TRIPOS>ATOM
      1 C1         -1.3402   -4.8618    1.2145 C.3       1 <0>        -0.1534
      2 C2         -0.8181   -3.6495    0.4408 C.3       1 <0>         0.0511
      3 O1         -0.7742   -2.5142    1.3074 O.3       1 <0>        -0.3148
      4 C3         -0.3304   -1.3470    0.7727 C.ar      1 <0>         0.1525
      5 C4          0.0498   -1.3049   -0.5488 C.ar      1 <0>        -0.1831
      6 C5          0.5092   -0.1023   -1.1071 C.ar      1 <0>         0.1876
      7 C6          0.5748    1.0570   -0.2965 C.ar      1 <0>        -0.1304
      8 C7          0.1883    0.9932    1.0499 C.ar      1 <0>        -0.0592
      9 C8         -0.2650   -0.1967    1.5740 C.ar      1 <0>         0.1185
     10 N1         -0.6575   -0.2608    2.9161 N.am      1 <0>        -0.6449
     11 C9         -0.1566    0.6173    3.8075 C.2       1 <0>         0.5328
     12 O2          0.7152    1.3957    3.4703 O.2       1 <0>        -0.5071
     13 C10        -0.6641    0.6344    5.1877 C.2       1 <0>        -0.1271
     14 C11        -0.1697    1.5011    6.0673 C.2       1 <0>        -0.1492
     15 C12        -0.6897    1.5186    7.4817 C.3       1 <0>         0.0302
     16 C13         1.3312    2.5206    8.3617 C.3       1 <0>        -0.0486
     17 C14        -0.0528    1.1357    9.7861 C.3       1 <0>        -0.0433
     18 C15         1.0386    2.2666   -0.8642 C.ar      1 <0>         0.2844
     19 C16         1.4144    2.2536   -2.2161 C.ar      1 <0>        -0.1029
     20 C17         1.3165    1.0573   -2.9447 C.ar      1 <0>         0.2010
     21 N2          0.8834   -0.0478   -2.3940 N.ar      1 <0>        -0.4743
     22 C18         1.8922    3.4476   -2.8459 C.1       1 <0>         0.2469
     23 N3          2.2712    4.3948   -3.3456 N.1       1 <0>        -0.3851
     24 N4          1.1194    3.4219   -0.1130 N.pl3     1 <0>        -0.6979
     25 C19         2.3677    3.9814    0.1773 C.ar      1 <0>         0.1846
     26 C20         3.4715    3.1592    0.3659 C.ar      1 <0>        -0.1231
     27 C21         4.7048    3.7137    0.6463 C.ar      1 <0>        -0.1069
     28 C22         4.8398    5.0877    0.7520 C.ar      1 <0>         0.0844
     29 C23         3.7394    5.9099    0.5700 C.ar      1 <0>        -0.0407
     30 C24         2.5044    5.3592    0.2831 C.ar      1 <0>        -0.1222
     31 Cl1         3.9119    7.6322    0.7020 Cl        1 <0>        -0.0373
     32 F1          6.0462    5.6274    1.0324 F         1 <0>        -0.1244
     33 H1         -2.3423   -4.6506    1.5877 H         1 <0>         0.0676
     34 H2         -1.3737   -5.7279    0.5535 H         1 <0>         0.0859
     35 H3         -0.6765   -5.0706    2.0536 H         1 <0>         0.0665
     36 H4         -1.4818   -3.4407   -0.3983 H         1 <0>         0.0727
     37 H5          0.1840   -3.8607    0.0676 H         1 <0>         0.0719
     38 H6         -0.0049   -2.1965   -1.1558 H         1 <0>         0.1557
     39 H7          0.2375    1.8756    1.6707 H         1 <0>         0.1646
     40 H8         -1.2900   -0.9373    3.2047 H         1 <0>         0.4221
     41 H9         -1.4381   -0.0567    5.4870 H         1 <0>         0.1454
     42 H10         0.6043    2.1922    5.7680 H         1 <0>         0.1533
     43 H11        -1.1915    2.4672    7.6726 H         1 <0>         0.1468
     44 H12        -1.3959    0.6999    7.6193 H         1 <0>         0.1366
     45 H13         0.7789    3.4221    8.6269 H         1 <0>         0.1257
     46 H14         2.1523    2.3777    9.0642 H         1 <0>         0.1250
     47 H15         1.7302    2.6227    7.3524 H         1 <0>         0.1232
     48 H16        -0.6601    0.2309    9.8124 H         1 <0>         0.1226
     49 H17         0.7976    1.0222   10.4584 H         1 <0>         0.1252
     50 H18        -0.6553    1.9870   10.1029 H         1 <0>         0.1250
     51 H19         1.6056    1.0492   -3.9853 H         1 <0>         0.1765
     52 H20         0.3102    3.8456    0.2136 H         1 <0>         0.4201
     53 H21         3.3660    2.0871    0.2888 H         1 <0>         0.1375
     54 H22         5.5639    3.0747    0.7881 H         1 <0>         0.1500
     55 H23         1.6466    6.0000    0.1416 H         1 <0>         0.1457
     56 N5          0.4465    1.3376    8.4096 N.4       1 <0>        -0.3970
     57 H24         0.9816    0.5092    8.1241 H         1 <0>         0.4334
@<TRIPOS>BOND
     1    1    2 1
     2    1   33 1
     3    1   34 1
     4    1   35 1
     5    2    3 1
     6    2   36 1
     7    2   37 1
     8    3    4 1
     9    4    9 ar
    10    4    5 ar
    11    5    6 ar
    12    5   38 1
    13    6   21 ar
    14    6    7 ar
    15    7    8 ar
    16    7   18 ar
    17    8    9 ar
    18    8   39 1
    19    9   10 1
    20   10   11 am
    21   10   40 1
    22   11   12 2
    23   11   13 1
    24   13   14 2
    25   13   41 1
    26   14   15 1
    27   14   42 1
    28   15   43 1
    29   15   44 1
    30   15   56 1
    31   16   45 1
    32   16   46 1
    33   16   47 1
    34   16   56 1
    35   17   48 1
    36   17   49 1
    37   17   50 1
    38   17   56 1
    39   18   19 ar
    40   18   24 1
    41   19   20 ar
    42   19   22 1
    43   20   21 ar
    44   20   51 1
    45   22   23 3
    46   24   25 1
    47   24   52 1
    48   25   30 ar
    49   25   26 ar
    50   26   27 ar
    51   26   53 1
    52   27   28 ar
    53   27   54 1
    54   28   29 ar
    55   28   32 1
    56   29   30 ar
    57   29   31 1
    58   30   55 1
    59   56   57 1
@<TRIPOS>MOLECULE
ZINC03861806
   52    56     0     0     0
SMALL
USER_CHARGES

@<TRIPOS>ATOM
      1 C1         -3.6930   -4.3953    1.3855 C.3       1 <0>         0.0252
      2 O1         -2.4437   -3.8768    0.9246 O.3       1 <0>        -0.3003
      3 C2         -2.4359   -2.5932    0.4754 C.ar      1 <0>         0.1495
      4 C3         -3.6051   -1.8476    0.4840 C.ar      1 <0>        -0.2259
      5 C4         -3.5982   -0.5428    0.0277 C.ar      1 <0>        -0.0209
      6 C5         -2.4270    0.0241   -0.4388 C.ar      1 <0>        -0.2100
      7 C6         -1.2537   -0.7147   -0.4507 C.ar      1 <0>         0.1530
      8 C7         -1.2551   -2.0250    0.0125 C.ar      1 <0>         0.0322
      9 O2         -0.1044   -2.7517    0.0077 O.3       1 <0>        -0.3125
     10 C8          0.1804   -3.5080   -1.1708 C.3       1 <0>         0.0352
     11 O3         -0.1020   -0.1562   -0.9103 O.3       1 <0>        -0.3009
     12 C9         -0.1736    1.1963   -1.3658 C.3       1 <0>         0.0228
     13 C10        -4.8712    0.2637    0.0384 C.3       1 <0>         0.0189
     14 H1         -4.6351    1.3241    0.1275 H         1 <0>         0.1131
     15 C11        -5.7434   -0.1683    1.2044 C.ar      1 <0>        -0.0529
     16 C12        -5.3819    0.3279    2.4585 C.ar      1 <0>        -0.0868
     17 C13        -6.1565   -0.0324    3.5478 C.ar      1 <0>         0.0421
     18 C14        -7.2723   -0.8695    3.3919 C.ar      1 <0>         0.0393
     19 C15        -7.6229   -1.3601    2.1459 C.ar      1 <0>        -0.0960
     20 C16        -6.8323   -0.9991    1.0529 C.ar      1 <0>        -0.1113
     21 C17        -7.2358   -1.5900   -0.2866 C.3       1 <0>         0.1688
     22 H2         -8.0711   -1.0261   -0.7019 H         1 <0>         0.0847
     23 C18        -6.0407   -1.4964   -1.2162 C.3       1 <0>        -0.1345
     24 H3         -5.2202   -2.1338   -0.8868 H         1 <0>         0.1266
     25 C19        -5.6449    0.0168   -1.2401 C.3       1 <0>        -0.1550
     26 H4         -6.5338    0.6466   -1.2763 H         1 <0>         0.1353
     27 C20        -4.8681    0.0939   -2.5223 C.2       1 <0>         0.5007
     28 O4         -3.9698    0.8653   -2.7630 O.2       1 <0>        -0.4366
     29 O5         -5.3498   -0.8527   -3.3612 O.3       1 <0>        -0.3458
     30 C21        -6.3520   -1.6858   -2.7083 C.3       1 <0>         0.0681
     31 O6         -7.6124   -2.9581   -0.1179 O.3       1 <0>        -0.5509
     32 O7         -7.8478   -1.0577    4.6012 O.3       1 <0>        -0.3030
     33 C22        -6.8554   -0.6544    5.5678 C.3       1 <0>         0.2110
     34 O8         -6.0375    0.2962    4.8542 O.3       1 <0>        -0.3017
     35 H5         -3.5594   -5.4258    1.7147 H         1 <0>         0.1036
     36 H6         -4.0518   -3.7913    2.2188 H         1 <0>         0.0550
     37 H7         -4.4206   -4.3644    0.5745 H         1 <0>         0.0591
     38 H8         -4.5223   -2.2870    0.8474 H         1 <0>         0.1403
     39 H9         -2.4259    1.0438   -0.7948 H         1 <0>         0.1436
     40 H10         1.1236   -4.0390   -1.0427 H         1 <0>         0.0933
     41 H11        -0.6206   -4.2268   -1.3436 H         1 <0>         0.0441
     42 H12         0.2553   -2.8352   -2.0251 H         1 <0>         0.0449
     43 H13        -0.8820    1.2647   -2.1914 H         1 <0>         0.0632
     44 H14        -0.5045    1.8377   -0.5490 H         1 <0>         0.0578
     45 H15         0.8112    1.5183   -1.7045 H         1 <0>         0.1032
     46 H16        -4.5237    0.9730    2.5752 H         1 <0>         0.1469
     47 H17        -8.4816   -2.0034    2.0228 H         1 <0>         0.1434
     48 H18        -6.2416   -2.7319   -2.9939 H         1 <0>         0.1164
     49 H19        -7.3548   -1.3271   -2.9400 H         1 <0>         0.0940
     50 H20        -8.3572   -3.0895    0.4848 H         1 <0>         0.3841
     51 H21        -7.3297   -0.1809    6.4274 H         1 <0>         0.1352
     52 H22        -6.2591   -1.5107    5.8829 H         1 <0>         0.0906
@<TRIPOS>BOND
     1    1    2 1
     2    1   35 1
     3    1   36 1
     4    1   37 1
     5    2    3 1
     6    3    8 ar
     7    3    4 ar
     8    4    5 ar
     9    4   38 1
    10    5    6 ar
    11    5   13 1
    12    6    7 ar
    13    6   39 1
    14    7    8 ar
    15    7   11 1
    16    8    9 1
    17    9   10 1
    18   10   40 1
    19   10   41 1
    20   10   42 1
    21   11   12 1
    22   12   43 1
    23   12   44 1
    24   12   45 1
    25   13   14 1
    26   13   25 1
    27   13   15 1
    28   15   20 ar
    29   15   16 ar
    30   16   17 ar
    31   16   46 1
    32   17   34 1
    33   17   18 ar
    34   18   19 ar
    35   18   32 1
    36   19   20 ar
    37   19   47 1
    38   20   21 1
    39   21   22 1
    40   21   23 1
    41   21   31 1
    42   23   24 1
    43   23   30 1
    44   23   25 1
    45   25   26 1
    46   25   27 1
    47   27   28 2
    48   27   29 1
    49   29   30 1
    50   30   48 1
    51   30   49 1
    52   31   50 1
    53   32   33 1
    54   33   34 1
    55   33   51 1
    56   33   52 1
@<TRIPOS>MOLECULE
ZINC13452167
   43    44     0     0     0
SMALL
USER_CHARGES
2-methoxy-5-[(Z)-2-(3,4,5-trimethoxyphenyl)vinyl]phenol
@<TRIPOS>ATOM
      1 C1         -2.5739   -5.3278   -3.5961 C.3       1 <0>         0.0240
      2 O1         -1.6433   -6.2084   -2.9633 O.3       1 <0>        -0.3061
      3 C2         -0.5548   -5.6403   -2.3797 C.ar      1 <0>         0.1097
      4 C3         -0.3395   -4.2750   -2.4987 C.ar      1 <0>        -0.1980
      5 C4          0.7628   -3.6933   -1.9089 C.ar      1 <0>        -0.0560
      6 C5          1.6664   -4.4799   -1.1890 C.ar      1 <0>        -0.0890
      7 C6          1.4521   -5.8563   -1.0743 C.ar      1 <0>        -0.0967
      8 C7          0.3413   -6.4307   -1.6633 C.ar      1 <0>         0.0694
      9 O2          0.1266   -7.7688   -1.5490 O.3       1 <0>        -0.4855
     10 C8          2.8451   -3.8608   -0.5577 C.2       1 <0>        -0.0895
     11 C9          2.7487   -2.6388   -0.0089 C.2       1 <0>        -0.1155
     12 C10         1.4284   -2.0039    0.1484 C.ar      1 <0>         0.0156
     13 C11         0.3151   -2.7778    0.4869 C.ar      1 <0>        -0.2135
     14 C12        -0.9229   -2.1786    0.6342 C.ar      1 <0>         0.1497
     15 C13        -1.0593   -0.8059    0.4515 C.ar      1 <0>         0.0278
     16 C14         0.0461   -0.0334    0.1089 C.ar      1 <0>         0.1482
     17 C15         1.2869   -0.6264   -0.0400 C.ar      1 <0>        -0.2267
     18 O3         -0.0925    1.3070   -0.0743 O.3       1 <0>        -0.3027
     19 C16         1.0849    2.0399   -0.4188 C.3       1 <0>         0.0244
     20 O4         -2.2772   -0.2188    0.6026 O.3       1 <0>        -0.3121
     21 C17        -3.1047   -0.1329   -0.5593 C.3       1 <0>         0.0358
     22 O5         -2.0068   -2.9309    0.9640 O.3       1 <0>        -0.3010
     23 C18        -1.7777   -4.3154    1.2336 C.3       1 <0>         0.0252
     24 H1         -2.0933   -4.8395   -4.4439 H         1 <0>         0.0562
     25 H2         -3.4343   -5.8985   -3.9455 H         1 <0>         0.1031
     26 H3         -2.9040   -4.5736   -2.8817 H         1 <0>         0.0570
     27 H4         -1.0368   -3.6662   -3.0551 H         1 <0>         0.1322
     28 H5          0.9282   -2.6303   -2.0034 H         1 <0>         0.1292
     29 H6          2.1502   -6.4688   -0.5230 H         1 <0>         0.1393
     30 H7          0.5319   -8.2937   -2.2528 H         1 <0>         0.3875
     31 H8          3.7865   -4.3897   -0.5363 H         1 <0>         0.1328
     32 H9          3.6389   -2.1215    0.3171 H         1 <0>         0.1342
     33 H10         0.4211   -3.8426    0.6328 H         1 <0>         0.1395
     34 H11         2.1453   -0.0256   -0.3020 H         1 <0>         0.1375
     35 H12         1.4905    1.6567   -1.3552 H         1 <0>         0.0568
     36 H13         0.8353    3.0945   -0.5356 H         1 <0>         0.1033
     37 H14         1.8271    1.9275    0.3715 H         1 <0>         0.0585
     38 H15        -2.5933    0.4470   -1.3275 H         1 <0>         0.0434
     39 H16        -3.3076   -1.1356   -0.9357 H         1 <0>         0.0427
     40 H17        -4.0444    0.3552   -0.3008 H         1 <0>         0.0924
     41 H18        -2.7303   -4.8120    1.4183 H         1 <0>         0.1030
     42 H19        -1.2880   -4.7764    0.3758 H         1 <0>         0.0560
     43 H20        -1.1402   -4.4139    2.1122 H         1 <0>         0.0581
@<TRIPOS>BOND
     1    1    2 1
     2    1   24 1
     3    1   25 1
     4    1   26 1
     5    2    3 1
     6    3    8 ar
     7    3    4 ar
     8    4    5 ar
     9    4   27 1
    10    5    6 ar
    11    5   28 1
    12    6    7 ar
    13    6   10 1
    14    7    8 ar
    15    7   29 1
    16    8    9 1
    17    9   30 1
    18   10   11 2
    19   10   31 1
    20   11   12 1
    21   11   32 1
    22   12   17 ar
    23   12   13 ar
    24   13   14 ar
    25   13   33 1
    26   14   15 ar
    27   14   22 1
    28   15   16 ar
    29   15   20 1
    30   16   17 ar
    31   16   18 1
    32   17   34 1
    33   18   19 1
    34   19   35 1
    35   19   36 1
    36   19   37 1
    37   20   21 1
    38   21   38 1
    39   21   39 1
    40   21   40 1
    41   22   23 1
    42   23   41 1
    43   23   42 1
    44   23   43 1
@<TRIPOS>MOLECULE
ZINC19632614
   55    58     0     0     0
SMALL
USER_CHARGES

@<TRIPOS>ATOM
      1 C1         -0.7374    1.4118    0.5253 C.3       1 <0>         0.0199
      2 O1         -0.7263   -0.0171    0.5247 O.3       1 <0>        -0.2961
      3 C2          0.0734   -0.6280    1.4373 C.ar      1 <0>         0.1647
      4 C3          0.8188    0.1348    2.3090 C.ar      1 <0>        -0.1833
      5 C4          1.6420   -0.4976    3.2485 C.ar      1 <0>         0.2017
      6 C5          1.6952   -1.9130    3.2874 C.ar      1 <0>        -0.1805
      7 C6          0.9277   -2.6653    2.3903 C.ar      1 <0>        -0.1504
      8 C7          0.1268   -2.0280    1.4855 C.ar      1 <0>         0.1167
      9 O2         -0.6229   -2.7597    0.6185 O.3       1 <0>        -0.2957
     10 C8         -0.5255   -4.1819    0.7171 C.3       1 <0>         0.0569
     11 C9         -1.4334   -4.8292   -0.3307 C.3       1 <0>        -0.1162
     12 C10        -1.3291   -6.3519   -0.2252 C.3       1 <0>         0.0590
     13 N1         -2.2008   -6.9733   -1.2311 N.3       1 <0>        -0.5361
     14 C11        -3.6165   -6.7053   -0.9393 C.3       1 <0>         0.0126
     15 C12        -4.4841   -7.3184   -2.0416 C.3       1 <0>         0.0623
     16 O3         -4.2065   -8.7181   -2.1368 O.3       1 <0>        -0.3850
     17 C13        -2.8368   -9.0154   -2.4209 C.3       1 <0>         0.0626
     18 C14        -1.9524   -8.4195   -1.3224 C.3       1 <0>         0.0175
     19 C15         2.5361   -2.5234    4.2482 C.ar      1 <0>         0.4639
     20 N2          3.2308   -1.7396    5.0625 N.ar      1 <0>        -0.5813
     21 C16         3.1493   -0.4206    4.9892 C.ar      1 <0>         0.3427
     22 N3          2.3876    0.1999    4.1200 N.ar      1 <0>        -0.5394
     23 N4          2.6306   -3.8977    4.3362 N.pl3     1 <0>        -0.6396
     24 C17         3.3713   -4.4833    5.3684 C.ar      1 <0>         0.1586
     25 C18         3.4039   -3.8902    6.6240 C.ar      1 <0>        -0.0764
     26 C19         4.1353   -4.4698    7.6421 C.ar      1 <0>        -0.1191
     27 C20         4.8362   -5.6416    7.4124 C.ar      1 <0>         0.0961
     28 C21         4.8054   -6.2354    6.1608 C.ar      1 <0>        -0.0542
     29 C22         4.0703   -5.6613    5.1406 C.ar      1 <0>        -0.1133
     30 Cl1         5.6852   -7.7046    5.8756 Cl        1 <0>        -0.0422
     31 F1          5.5513   -6.2065    8.4097 F         1 <0>        -0.1250
     32 H1          0.2683    1.7831    0.3285 H         1 <0>         0.0625
     33 H2         -1.4151    1.7702   -0.2495 H         1 <0>         0.1078
     34 H3         -1.0740    1.7722    1.4974 H         1 <0>         0.0624
     35 H4          0.7687    1.2128    2.2678 H         1 <0>         0.1567
     36 H5          0.9651   -3.7443    2.4164 H         1 <0>         0.1382
     37 H6          0.5060   -4.4884    0.5431 H         1 <0>         0.0655
     38 H7         -0.8359   -4.4993    1.7126 H         1 <0>         0.0633
     39 H8         -2.4649   -4.5227   -0.1568 H         1 <0>         0.0772
     40 H9         -1.1230   -4.5118   -1.3262 H         1 <0>         0.0870
     41 H10        -0.2976   -6.6584   -0.3991 H         1 <0>         0.0806
     42 H11        -1.6394   -6.6693    0.7704 H         1 <0>         0.0394
     43 H12        -3.8805   -7.1489    0.0207 H         1 <0>         0.0445
     44 H13        -3.7829   -5.6288   -0.9016 H         1 <0>         0.0906
     45 H14        -5.5369   -7.1717   -1.8001 H         1 <0>         0.0996
     46 H15        -4.2579   -6.8370   -2.9930 H         1 <0>         0.0614
     47 H16        -2.6980  -10.0960   -2.4536 H         1 <0>         0.0999
     48 H17        -2.5626   -8.5833   -3.3833 H         1 <0>         0.0613
     49 H18        -0.9041   -8.5942   -1.5643 H         1 <0>         0.0880
     50 H19        -2.1898   -8.8905   -0.3685 H         1 <0>         0.0446
     51 H20         3.7361    0.1714    5.6759 H         1 <0>         0.1991
     52 H21         2.1833   -4.4574    3.6823 H         1 <0>         0.4215
     53 H22         2.8578   -2.9760    6.8040 H         1 <0>         0.1516
     54 H23         4.1608   -4.0084    8.6183 H         1 <0>         0.1509
     55 H24         4.0430   -6.1262    4.1662 H         1 <0>         0.1452
@<TRIPOS>BOND
     1    1    2 1
     2    1   32 1
     3    1   33 1
     4    1   34 1
     5    2    3 1
     6    3    8 ar
     7    3    4 ar
     8    4    5 ar
     9    4   35 1
    10    5   22 ar
    11    5    6 ar
    12    6    7 ar
    13    6   19 ar
    14    7    8 ar
    15    7   36 1
    16    8    9 1
    17    9   10 1
    18   10   11 1
    19   10   37 1
    20   10   38 1
    21   11   12 1
    22   11   39 1
    23   11   40 1
    24   12   13 1
    25   12   41 1
    26   12   42 1
    27   13   18 1
    28   13   14 1
    29   14   15 1
    30   14   43 1
    31   14   44 1
    32   15   16 1
    33   15   45 1
    34   15   46 1
    35   16   17 1
    36   17   18 1
    37   17   47 1
    38   17   48 1
    39   18   49 1
    40   18   50 1
    41   19   20 ar
    42   19   23 1
    43   20   21 ar
    44   21   22 ar
    45   21   51 1
    46   23   24 1
    47   23   52 1
    48   24   29 ar
    49   24   25 ar
    50   25   26 ar
    51   25   53 1
    52   26   27 ar
    53   26   54 1
    54   27   28 ar
    55   27   31 1
    56   28   29 ar
    57   28   30 1
    58   29   55 1
@<TRIPOS>MOLECULE
ZINC19632614
   57    60     0     0     0
SMALL
USER_CHARGES

@<TRIPOS>ATOM
      1 C1          0.4957    0.6763   -1.2292 C.3       1 <0>         0.0097
      2 O1          0.3708   -0.6717   -0.7717 O.3       1 <0>        -0.2780
      3 C2         -0.8861   -1.1806   -0.6878 C.ar      1 <0>         0.2175
      4 C3         -1.9704   -0.3964   -1.0449 C.ar      1 <0>        -0.2163
      5 C4         -3.2517   -0.9159   -0.9595 C.ar      1 <0>         0.2109
      6 C5         -3.4429   -2.2355   -0.5110 C.ar      1 <0>        -0.1696
      7 C6         -2.3484   -3.0191   -0.1533 C.ar      1 <0>        -0.1343
      8 C7         -1.0748   -2.4922   -0.2475 C.ar      1 <0>         0.1172
      9 O2         -0.0002   -3.2528    0.0951 O.3       1 <0>        -0.2792
     10 C8         -0.2516   -4.6209    0.4223 C.3       1 <0>         0.0522
     11 C9          1.0783   -5.3474    0.6333 C.3       1 <0>        -0.1519
     12 C10         0.8148   -6.8369    0.8638 C.3       1 <0>        -0.0151
     13 N1          2.0946   -7.5463    0.9928 N.4       1 <0>        -0.3820
     14 C11         2.8253   -7.4743   -0.2800 C.3       1 <0>        -0.0514
     15 C12         4.1584   -8.2140   -0.1429 C.3       1 <0>         0.0361
     16 O3          3.9086   -9.5683    0.2435 O.3       1 <0>        -0.3530
     17 C13         3.1775   -9.6905    1.4668 C.3       1 <0>         0.0362
     18 C14         1.8426   -8.9535    1.3327 C.3       1 <0>        -0.0460
     19 C15        -4.8247   -2.7457   -0.4360 C.cat     1 <0>         0.5319
     20 N2         -5.0725   -3.9771   -0.0222 N.pl3     1 <0>        -0.5604
     21 C16        -4.2014   -4.6012    0.8249 C.ar      1 <0>         0.0974
     22 C17        -3.7272   -3.9360    1.9592 C.ar      1 <0>        -0.0816
     23 C18        -2.8483   -4.5713    2.8111 C.ar      1 <0>        -0.1175
     24 C19        -2.4343   -5.8665    2.5448 C.ar      1 <0>         0.1198
     25 C20        -2.9002   -6.5323    1.4212 C.ar      1 <0>        -0.0716
     26 C21        -3.7851   -5.9094    0.5642 C.ar      1 <0>        -0.0825
     27 Cl1        -2.3754   -8.1547    1.0956 Cl        1 <0>        -0.0183
     28 F1         -1.5728   -6.4831    3.3830 F         1 <0>        -0.1112
     29 N3         -5.8317   -1.9199   -0.8014 N.2       1 <0>        -0.5495
     30 C22        -5.6076   -0.7054   -1.2106 C.2       1 <0>         0.4712
     31 N4         -4.3672   -0.1695   -1.3053 N.pl3     1 <0>        -0.5812
     32 H1         -4.2589    0.7427   -1.6168 H         1 <0>         0.4503
     33 H2          1.5487    0.9571   -1.2491 H         1 <0>         0.1245
     34 H3          0.0784    0.7596   -2.2327 H         1 <0>         0.0727
     35 H4         -0.0447    1.3405   -0.5547 H         1 <0>         0.0731
     36 H5         -1.8176    0.6161   -1.3882 H         1 <0>         0.1754
     37 H6         -2.4939   -4.0322    0.1915 H         1 <0>         0.1665
     38 H7         -0.8431   -4.6731    1.3364 H         1 <0>         0.0710
     39 H8         -0.7992   -5.0947   -0.3924 H         1 <0>         0.0775
     40 H9          1.7051   -5.2217   -0.2495 H         1 <0>         0.1094
     41 H10         1.5867   -4.9297    1.5023 H         1 <0>         0.1099
     42 H11         0.2340   -6.9660    1.7771 H         1 <0>         0.1336
     43 H12         0.2581   -7.2423    0.0189 H         1 <0>         0.1350
     44 H13         2.2311   -7.9385   -1.0671 H         1 <0>         0.1411
     45 H14         3.0128   -6.4308   -0.5330 H         1 <0>         0.1444
     46 H15         4.6829   -8.1989   -1.0982 H         1 <0>         0.1447
     47 H16         4.7692   -7.7256    0.6163 H         1 <0>         0.0840
     48 H17         2.9923  -10.7439    1.6765 H         1 <0>         0.1456
     49 H18         3.7548   -9.2526    2.2811 H         1 <0>         0.0847
     50 H19         1.3007   -9.0081    2.2769 H         1 <0>         0.1448
     51 H20         1.2488   -9.4172    0.5450 H         1 <0>         0.1398
     52 H21        -4.0484   -2.9261    2.1679 H         1 <0>         0.1559
     53 H22        -2.4815   -4.0580    3.6876 H         1 <0>         0.1719
     54 H23        -4.1514   -6.4303   -0.3081 H         1 <0>         0.1696
     55 H24        -6.4530   -0.0939   -1.4891 H         1 <0>         0.2492
     56 H25        -5.8728   -4.4370   -0.3202 H         1 <0>         0.4487
     57 H26         2.6450   -7.1175    1.7216 H         1 <0>         0.4269
@<TRIPOS>BOND
     1    1    2 1
     2    1   33 1
     3    1   34 1
     4    1   35 1
     5    2    3 1
     6    3    8 ar
     7    3    4 ar
     8    4    5 ar
     9    4   36 1
    10    5   31 1
    11    5    6 ar
    12    6    7 ar
    13    6   19 1
    14    7    8 ar
    15    7   37 1
    16    8    9 1
    17    9   10 1
    18   10   11 1
    19   10   38 1
    20   10   39 1
    21   11   12 1
    22   11   40 1
    23   11   41 1
    24   12   13 1
    25   12   42 1
    26   12   43 1
    27   13   18 1
    28   13   14 1
    29   13   57 1
    30   14   15 1
    31   14   44 1
    32   14   45 1
    33   15   16 1
    34   15   46 1
    35   15   47 1
    36   16   17 1
    37   17   18 1
    38   17   48 1
    39   17   49 1
    40   18   50 1
    41   18   51 1
    42   19   20 2
    43   19   29 1
    44   20   21 1
    45   20   56 1
    46   21   26 ar
    47   21   22 ar
    48   22   23 ar
    49   22   52 1
    50   23   24 ar
    51   23   53 1
    52   24   25 ar
    53   24   28 1
    54   25   26 ar
    55   25   27 1
    56   26   54 1
    57   29   30 2
    58   30   31 1
    59   30   55 1
    60   31   32 1
