@<TRIPOS>MOLECULE
ZINC00621853
   54    56     0     0     0
SMALL
USER_CHARGES

@<TRIPOS>ATOM
      1 C1         -0.0284    1.4293   -0.4778 C.3       1 <0>        -0.1767
      2 C2         -0.0129   -0.0745   -0.3804 C.2       1 <0>         0.5133
      3 O1          1.0419   -0.6727   -0.4014 O.2       1 <0>        -0.5352
      4 N1         -1.1713   -0.7546   -0.2699 N.am      1 <0>        -0.7311
      5 C3         -1.1562   -2.2164   -0.1752 C.3       1 <0>         0.1688
      6 H1         -0.2762   -2.5266    0.3883 H         1 <0>         0.1083
      7 C4         -2.3999   -2.6766    0.5586 C.3       1 <0>        -0.1167
      8 C5         -2.6213   -4.1756    0.3776 C.3       1 <0>        -0.0793
      9 C6         -1.3153   -4.9067    0.5534 C.ar      1 <0>        -0.0232
     10 C7         -1.0582   -5.5960    1.7202 C.ar      1 <0>        -0.1967
     11 C8          0.1423   -6.2778    1.8745 C.ar      1 <0>         0.1328
     12 C9          1.0898   -6.2717    0.8565 C.ar      1 <0>         0.0421
     13 C10         0.8389   -5.5766   -0.3193 C.ar      1 <0>         0.1373
     14 C11        -0.3691   -4.8877   -0.4655 C.ar      1 <0>        -0.0983
     15 C12        -0.6334   -4.1159   -1.7162 C.2       1 <0>        -0.0547
     16 C13        -1.0800   -2.8009   -1.5711 C.2       1 <0>         0.0265
     17 C14        -1.4567   -1.9931   -2.5770 C.2       1 <0>        -0.2146
     18 C15        -1.4974   -2.1542   -3.9332 C.2       1 <0>         0.3926
     19 O2         -1.9764   -1.2222   -4.5653 O.2       1 <0>        -0.4893
     20 C16        -1.0654   -3.2383   -4.6895 C.2       1 <0>         0.1028
     21 C17        -0.5761   -4.4044   -4.1889 C.2       1 <0>        -0.1927
     22 C18        -0.4083   -4.7668   -2.9017 C.2       1 <0>        -0.0172
     23 O3         -1.1385   -3.1234   -6.0380 O.3       1 <0>        -0.2828
     24 C19        -0.6931   -4.2409   -6.8094 C.3       1 <0>         0.0136
     25 O4          1.7595   -5.5657   -1.3188 O.3       1 <0>        -0.3263
     26 C20         2.8002   -4.5904   -1.2317 C.3       1 <0>         0.0375
     27 O5          2.2617   -6.9458    1.0126 O.3       1 <0>        -0.3181
     28 C21         2.2856   -8.3114    0.5923 C.3       1 <0>         0.0378
     29 O6          0.3920   -6.9547    3.0264 O.3       1 <0>        -0.3018
     30 C22        -0.6230   -6.9211    4.0317 C.3       1 <0>         0.0227
     31 H2          0.9938    1.7986   -0.5602 H         1 <0>         0.0946
     32 H3         -0.5957    1.7305   -1.3585 H         1 <0>         0.0918
     33 H4         -0.4946    1.8464    0.4148 H         1 <0>         0.0904
     34 H5         -2.0149   -0.2761   -0.2531 H         1 <0>         0.4055
     35 H6         -2.2905   -2.4569    1.6206 H         1 <0>         0.0846
     36 H7         -3.2642   -2.1380    0.1701 H         1 <0>         0.0835
     37 H8         -3.3373   -4.5286    1.1197 H         1 <0>         0.0890
     38 H9         -3.0121   -4.3664   -0.6219 H         1 <0>         0.0850
     39 H10        -1.7902   -5.6054    2.5142 H         1 <0>         0.1419
     40 H11        -1.7954   -1.0220   -2.2473 H         1 <0>         0.1371
     41 H12        -0.2789   -5.1392   -4.9226 H         1 <0>         0.1361
     42 H13        -0.0246   -5.7689   -2.7793 H         1 <0>         0.1273
     43 H14        -1.2900   -5.1174   -6.5574 H         1 <0>         0.0642
     44 H15        -0.8052   -4.0177   -7.8704 H         1 <0>         0.1099
     45 H16         0.3557   -4.4397   -6.5888 H         1 <0>         0.0642
     46 H17         3.4194   -4.7966   -0.3586 H         1 <0>         0.0551
     47 H18         3.4145   -4.6331   -2.1311 H         1 <0>         0.0957
     48 H19         2.3606   -3.5973   -1.1389 H         1 <0>         0.0532
     49 H20         1.9730   -8.3763   -0.4499 H         1 <0>         0.0481
     50 H21         3.2970   -8.7050    0.6934 H         1 <0>         0.0941
     51 H22         1.6051   -8.8945    1.2127 H         1 <0>         0.0461
     52 H23        -1.5429   -7.3495    3.6338 H         1 <0>         0.0583
     53 H24        -0.2973   -7.4993    4.8964 H         1 <0>         0.1043
     54 H25        -0.8031   -5.8888    4.3318 H         1 <0>         0.0588
@<TRIPOS>BOND
     1    1    2 1
     2    1   31 1
     3    1   32 1
     4    1   33 1
     5    2    3 2
     6    2    4 am
     7    4    5 1
     8    4   34 1
     9    5    6 1
    10    5   16 1
    11    5    7 1
    12    7    8 1
    13    7   35 1
    14    7   36 1
    15    8    9 1
    16    8   37 1
    17    8   38 1
    18    9   14 ar
    19    9   10 ar
    20   10   11 ar
    21   10   39 1
    22   11   12 ar
    23   11   29 1
    24   12   13 ar
    25   12   27 1
    26   13   14 ar
    27   13   25 1
    28   14   15 1
    29   15   22 2
    30   15   16 1
    31   16   17 2
    32   17   18 1
    33   17   40 1
    34   18   19 2
    35   18   20 1
    36   20   21 2
    37   20   23 1
    38   21   22 1
    39   21   41 1
    40   22   42 1
    41   23   24 1
    42   24   43 1
    43   24   44 1
    44   24   45 1
    45   25   26 1
    46   26   46 1
    47   26   47 1
    48   26   48 1
    49   27   28 1
    50   28   49 1
    51   28   50 1
    52   28   51 1
    53   29   30 1
    54   30   52 1
    55   30   53 1
    56   30   54 1
@<TRIPOS>MOLECULE
ZINC05202360
   51    53     0     0     0
SMALL
USER_CHARGES
N-(hydroxy-trimethoxy-oxo-BLAHyl)acetamide
@<TRIPOS>ATOM
      1 C1          5.9651    0.0357   -1.8320 C.3       1 <0>        -0.1745
      2 C2          4.6728   -0.6398   -1.4516 C.2       1 <0>         0.5136
      3 O1          3.8712   -0.9424   -2.3099 O.2       1 <0>        -0.5363
      4 N1          4.4079   -0.9077   -0.1576 N.am      1 <0>        -0.7302
      5 C3          3.1516   -1.5644    0.2122 C.3       1 <0>         0.1684
      6 H1          2.8704   -2.2633   -0.5755 H         1 <0>         0.1087
      7 C4          3.3557   -2.3314    1.5023 C.3       1 <0>        -0.1171
      8 C5          2.0182   -2.7298    2.1215 C.3       1 <0>        -0.0792
      9 C6          1.1012   -3.2655    1.0520 C.ar      1 <0>        -0.0265
     10 C7          0.8741   -4.6221    0.9501 C.ar      1 <0>        -0.1942
     11 C8          0.0199   -5.1129   -0.0291 C.ar      1 <0>         0.1252
     12 C9         -0.6117   -4.2424   -0.9109 C.ar      1 <0>         0.0542
     13 C10        -0.3844   -2.8757   -0.8170 C.ar      1 <0>         0.1287
     14 C11         0.4801   -2.3884    0.1680 C.ar      1 <0>        -0.0958
     15 C12         0.7357   -0.9199    0.2650 C.2       1 <0>        -0.0551
     16 C13         2.0678   -0.5152    0.3525 C.2       1 <0>         0.0256
     17 C14         2.4837    0.7489    0.5433 C.2       1 <0>        -0.2140
     18 C15         1.8189    1.9356    0.6719 C.2       1 <0>         0.3919
     19 O2          2.5183    2.9144    0.8972 O.2       1 <0>        -0.4894
     20 C16         0.4529    2.1784    0.5802 C.2       1 <0>         0.1033
     21 C17        -0.5068    1.2327    0.3951 C.2       1 <0>        -0.1929
     22 C18        -0.3633   -0.1008    0.2714 C.2       1 <0>        -0.0167
     23 O3          0.0432    3.4662    0.6837 O.3       1 <0>        -0.2827
     24 C19        -1.3617    3.7097    0.5882 C.3       1 <0>         0.0135
     25 O4         -0.9969   -2.0189   -1.6758 O.3       1 <0>        -0.3263
     26 C20        -0.3648   -1.8047   -2.9394 C.3       1 <0>         0.0376
     27 O5         -1.4513   -4.7295   -1.8649 O.3       1 <0>        -0.4766
     28 O6         -0.2001   -6.4507   -0.1258 O.3       1 <0>        -0.3027
     29 C21         0.4792   -7.2892    0.8109 C.3       1 <0>         0.0231
     30 H2          6.7278   -0.7195   -2.0214 H         1 <0>         0.0962
     31 H3          5.8124    0.6316   -2.7318 H         1 <0>         0.0958
     32 H4          6.2897    0.6838   -1.0178 H         1 <0>         0.0830
     33 H5          5.0490   -0.6656    0.5289 H         1 <0>         0.4054
     34 H6          3.9362   -3.2305    1.2958 H         1 <0>         0.0843
     35 H7          3.9034   -1.7061    2.2074 H         1 <0>         0.0834
     36 H8          2.1829   -3.4987    2.8763 H         1 <0>         0.0888
     37 H9          1.5600   -1.8571    2.5870 H         1 <0>         0.0848
     38 H10         1.3612   -5.3034    1.6320 H         1 <0>         0.1412
     39 H11         3.5574    0.8457    0.6075 H         1 <0>         0.1370
     40 H12        -1.5202    1.6011    0.3348 H         1 <0>         0.1365
     41 H13        -1.2982   -0.6285    0.1540 H         1 <0>         0.1278
     42 H14        -1.7255    3.3634   -0.3792 H         1 <0>         0.0643
     43 H15        -1.8783    3.1732    1.3840 H         1 <0>         0.0643
     44 H16        -1.5527    4.7783    0.6869 H         1 <0>         0.1100
     45 H17        -0.9224   -1.0560   -3.5022 H         1 <0>         0.0959
     46 H18         0.6552   -1.4548   -2.7807 H         1 <0>         0.0527
     47 H19        -0.3453   -2.7398   -3.4990 H         1 <0>         0.0547
     48 H20        -2.3732   -4.7961   -1.5807 H         1 <0>         0.3893
     49 H21         0.2163   -8.3304    0.6238 H         1 <0>         0.1044
     50 H22         1.5559   -7.1607    0.6993 H         1 <0>         0.0583
     51 H23         0.1838   -7.0163    1.8239 H         1 <0>         0.0585
@<TRIPOS>BOND
     1    1    2 1
     2    1   30 1
     3    1   31 1
     4    1   32 1
     5    2    3 2
     6    2    4 am
     7    4    5 1
     8    4   33 1
     9    5    6 1
    10    5   16 1
    11    5    7 1
    12    7    8 1
    13    7   34 1
    14    7   35 1
    15    8    9 1
    16    8   36 1
    17    8   37 1
    18    9   14 ar
    19    9   10 ar
    20   10   11 ar
    21   10   38 1
    22   11   12 ar
    23   11   28 1
    24   12   13 ar
    25   12   27 1
    26   13   14 ar
    27   13   25 1
    28   14   15 1
    29   15   22 2
    30   15   16 1
    31   16   17 2
    32   17   18 1
    33   17   39 1
    34   18   19 2
    35   18   20 1
    36   20   21 2
    37   20   23 1
    38   21   22 1
    39   21   40 1
    40   22   41 1
    41   23   24 1
    42   24   42 1
    43   24   43 1
    44   24   44 1
    45   25   26 1
    46   26   45 1
    47   26   46 1
    48   26   47 1
    49   27   48 1
    50   28   29 1
    51   29   49 1
    52   29   50 1
    53   29   51 1
@<TRIPOS>MOLECULE
ZINC02040495
   50    52     0     0     0
SMALL
USER_CHARGES

@<TRIPOS>ATOM
      1 C1         -0.0284    1.4293   -0.4778 C.3       1 <0>        -0.1739
      2 C2         -0.0129   -0.0745   -0.3804 C.2       1 <0>         0.5117
      3 O1          1.0419   -0.6727   -0.4014 O.2       1 <0>        -0.5395
      4 N1         -1.1713   -0.7546   -0.2699 N.am      1 <0>        -0.7233
      5 C3         -1.1562   -2.2164   -0.1752 C.3       1 <0>         0.1719
      6 H1         -0.2762   -2.5266    0.3883 H         1 <0>         0.0954
      7 C4         -2.3999   -2.6766    0.5586 C.3       1 <0>        -0.1111
      8 C5         -2.6213   -4.1756    0.3776 C.3       1 <0>        -0.0707
      9 C6         -1.3153   -4.9067    0.5534 C.ar      1 <0>        -0.0481
     10 C7         -1.0582   -5.5960    1.7202 C.ar      1 <0>        -0.1936
     11 C8          0.1423   -6.2778    1.8745 C.ar      1 <0>         0.1000
     12 C9          1.0898   -6.2717    0.8565 C.ar      1 <0>         0.0418
     13 C10         0.8389   -5.5766   -0.3193 C.ar      1 <0>         0.1139
     14 C11        -0.3691   -4.8877   -0.4655 C.ar      1 <0>        -0.0298
     15 C12        -0.6334   -4.1159   -1.7162 C.2       1 <0>        -0.2368
     16 C13        -1.0800   -2.8009   -1.5711 C.2       1 <0>         0.0695
     17 C14        -1.4567   -1.9931   -2.5770 C.2       1 <0>        -0.3241
     18 C15        -1.4974   -2.1542   -3.9332 C.2       1 <0>         0.3654
     19 O2         -1.9764   -1.2222   -4.5653 O.2       1 <0>        -0.5286
     20 C16        -1.0654   -3.2383   -4.6895 C.2       1 <0>         0.2672
     21 C17        -0.5761   -4.4044   -4.1889 C.2       1 <0>        -0.3224
     22 C18        -0.4083   -4.7668   -2.9017 C.2       1 <0>         0.0682
     23 O3         -1.1385   -3.1234   -6.0380 O.3       1 <0>        -0.6167
     24 O4          1.7595   -5.5657   -1.3188 O.3       1 <0>        -0.3207
     25 C19         2.8002   -4.5904   -1.2317 C.3       1 <0>         0.0424
     26 O5          2.2617   -6.9458    1.0126 O.3       1 <0>        -0.3216
     27 C20         2.2856   -8.3114    0.5923 C.3       1 <0>         0.0394
     28 O6          0.3920   -6.9547    3.0264 O.3       1 <0>        -0.3093
     29 C21        -0.6230   -6.9211    4.0317 C.3       1 <0>         0.0272
     30 H2          0.9938    1.7986   -0.5602 H         1 <0>         0.0893
     31 H3         -0.5957    1.7305   -1.3585 H         1 <0>         0.0893
     32 H4         -0.4946    1.8464    0.4148 H         1 <0>         0.0837
     33 H5         -2.0149   -0.2761   -0.2531 H         1 <0>         0.3991
     34 H6         -2.2905   -2.4569    1.6206 H         1 <0>         0.0699
     35 H7         -3.2642   -2.1380    0.1701 H         1 <0>         0.0750
     36 H8         -3.3373   -4.5286    1.1197 H         1 <0>         0.0745
     37 H9         -3.0121   -4.3664   -0.6219 H         1 <0>         0.0878
     38 H10        -1.7902   -5.6054    2.5142 H         1 <0>         0.1310
     39 H11        -1.7954   -1.0220   -2.2473 H         1 <0>         0.1010
     40 H12        -0.2789   -5.1392   -4.9226 H         1 <0>         0.0986
     41 H13        -0.0246   -5.7689   -2.7793 H         1 <0>         0.0901
     42 H14         2.3606   -3.5973   -1.1389 H         1 <0>         0.0542
     43 H15         3.4194   -4.7966   -0.3586 H         1 <0>         0.0444
     44 H16         3.4145   -4.6331   -2.1311 H         1 <0>         0.0891
     45 H17         3.2970   -8.7050    0.6934 H         1 <0>         0.0874
     46 H18         1.6051   -8.8945    1.2127 H         1 <0>         0.0414
     47 H19         1.9730   -8.3763   -0.4499 H         1 <0>         0.0475
     48 H20        -0.2973   -7.4993    4.8964 H         1 <0>         0.0960
     49 H21        -0.8031   -5.8888    4.3318 H         1 <0>         0.0537
     50 H22        -1.5429   -7.3495    3.6338 H         1 <0>         0.0533
@<TRIPOS>BOND
     1    1    2 1
     2    1   30 1
     3    1   31 1
     4    1   32 1
     5    2    3 2
     6    2    4 am
     7    4    5 1
     8    4   33 1
     9    5    6 1
    10    5   16 1
    11    5    7 1
    12    7    8 1
    13    7   34 1
    14    7   35 1
    15    8    9 1
    16    8   36 1
    17    8   37 1
    18    9   14 ar
    19    9   10 ar
    20   10   11 ar
    21   10   38 1
    22   11   12 ar
    23   11   28 1
    24   12   13 ar
    25   12   26 1
    26   13   14 ar
    27   13   24 1
    28   14   15 1
    29   15   22 2
    30   15   16 1
    31   16   17 2
    32   17   18 1
    33   17   39 1
    34   18   19 2
    35   18   20 1
    36   20   21 2
    37   20   23 1
    38   21   22 1
    39   21   40 1
    40   22   41 1
    41   24   25 1
    42   25   42 1
    43   25   43 1
    44   25   44 1
    45   26   27 1
    46   27   45 1
    47   27   46 1
    48   27   47 1
    49   28   29 1
    50   29   48 1
    51   29   49 1
    52   29   50 1
@<TRIPOS>MOLECULE
ZINC02040495
   51    53     0     0     0
SMALL
USER_CHARGES

@<TRIPOS>ATOM
      1 C1         -0.4275    1.3011    0.0718 C.3       1 <0>        -0.2000
      2 C2          0.1139   -0.1052    0.0616 C.2       1 <0>         0.3593
      3 N1          0.3963   -0.6959    1.1735 N.2       1 <0>        -0.5576
      4 C3          0.3129    0.0416    2.4365 C.3       1 <0>         0.1199
      5 H1          0.1259    1.0934    2.2204 H         1 <0>         0.0740
      6 C4         -0.8422   -0.5068    3.2520 C.3       1 <0>        -0.1036
      7 C5         -0.7644   -0.0341    4.7001 C.3       1 <0>        -0.0834
      8 C6         -0.4276    1.4348    4.7349 C.ar      1 <0>        -0.0173
      9 C7         -1.4072    2.3659    5.0098 C.ar      1 <0>        -0.1986
     10 C8         -1.0872    3.7172    5.0530 C.ar      1 <0>         0.1341
     11 C9          0.2180    4.1379    4.8216 C.ar      1 <0>         0.0403
     12 C10         1.2075    3.2051    4.5398 C.ar      1 <0>         0.1357
     13 C11         0.8764    1.8470    4.4914 C.ar      1 <0>        -0.1015
     14 C12         1.9264    0.8412    4.1565 C.2       1 <0>        -0.0573
     15 C13         1.6347   -0.0835    3.1682 C.2       1 <0>         0.0262
     16 C14         2.4451   -1.1194    2.7892 C.2       1 <0>        -0.1274
     17 C15         3.6603   -1.5235    3.1897 C.2       1 <0>         0.0982
     18 O1          4.1389   -2.6354    2.5801 O.3       1 <0>        -0.4642
     19 C16         4.4953   -0.9550    4.1459 C.2       1 <0>         0.3562
     20 C17         4.2058    0.1811    4.8817 C.2       1 <0>        -0.2071
     21 C18         3.1123    0.9234    4.8658 C.2       1 <0>        -0.0007
     22 O2          5.5701   -1.5024    4.3532 O.2       1 <0>        -0.5112
     23 O3          2.4853    3.6080    4.3127 O.3       1 <0>        -0.3237
     24 C19         2.8112    4.0121    2.9813 C.3       1 <0>         0.0391
     25 O4          0.5253    5.4628    4.8709 O.3       1 <0>        -0.3189
     26 C20         0.9072    5.9934    6.1416 C.3       1 <0>         0.0374
     27 O5         -2.0550    4.6328    5.3223 O.3       1 <0>        -0.3016
     28 C21        -3.3747    4.1342    5.5499 C.3       1 <0>         0.0225
     29 O6          0.3032   -0.7467   -1.1102 O.3       1 <0>        -0.4641
     30 H2          0.3998    2.0086    0.1270 H         1 <0>         0.0915
     31 H3         -0.9966    1.4781   -0.8409 H         1 <0>         0.0872
     32 H4         -1.0775    1.4340    0.9367 H         1 <0>         0.0897
     33 H5         -1.7814   -0.1678    2.8150 H         1 <0>         0.0730
     34 H6         -0.8107   -1.5962    3.2292 H         1 <0>         0.0883
     35 H7         -1.7256   -0.1977    5.1875 H         1 <0>         0.0870
     36 H8          0.0084   -0.5962    5.2245 H         1 <0>         0.0855
     37 H9         -2.4223    2.0449    5.1910 H         1 <0>         0.1422
     38 H10         2.0206   -1.7362    2.0109 H         1 <0>         0.1577
     39 H11         4.9806    0.5079    5.5595 H         1 <0>         0.1381
     40 H12         3.1493    1.7609    5.5467 H         1 <0>         0.1250
     41 H13         2.5598    3.2106    2.2866 H         1 <0>         0.0440
     42 H14         2.2444    4.9069    2.7242 H         1 <0>         0.0562
     43 H15         3.8779    4.2268    2.9177 H         1 <0>         0.0983
     44 H16         1.0500    7.0707    6.0575 H         1 <0>         0.0946
     45 H17         0.1247    5.7865    6.8717 H         1 <0>         0.0461
     46 H18         1.8381    5.5276    6.4649 H         1 <0>         0.0493
     47 H19        -3.7176    3.5970    4.6656 H         1 <0>         0.0587
     48 H20        -3.3652    3.4580    6.4047 H         1 <0>         0.0590
     49 H21        -4.0478    4.9671    5.7529 H         1 <0>         0.1048
     50 H22         0.0636   -0.2242   -1.8878 H         1 <0>         0.4108
     51 H23         5.0155   -2.9055    2.8863 H         1 <0>         0.4082
@<TRIPOS>BOND
     1    1    2 1
     2    1   30 1
     3    1   31 1
     4    1   32 1
     5    2    3 2
     6    2   29 1
     7    3    4 1
     8    4    5 1
     9    4   15 1
    10    4    6 1
    11    6    7 1
    12    6   33 1
    13    6   34 1
    14    7    8 1
    15    7   35 1
    16    7   36 1
    17    8   13 ar
    18    8    9 ar
    19    9   10 ar
    20    9   37 1
    21   10   11 ar
    22   10   27 1
    23   11   12 ar
    24   11   25 1
    25   12   13 ar
    26   12   23 1
    27   13   14 1
    28   14   21 1
    29   14   15 2
    30   15   16 1
    31   16   17 2
    32   16   38 1
    33   17   18 1
    34   17   19 1
    35   18   51 1
    36   19   20 1
    37   19   22 2
    38   20   21 2
    39   20   39 1
    40   21   40 1
    41   23   24 1
    42   24   41 1
    43   24   42 1
    44   24   43 1
    45   25   26 1
    46   26   44 1
    47   26   45 1
    48   26   46 1
    49   27   28 1
    50   28   47 1
    51   28   48 1
    52   28   49 1
    53   29   50 1
@<TRIPOS>MOLECULE
ZINC02040495
   51    53     0     0     0
SMALL
USER_CHARGES

@<TRIPOS>ATOM
      1 C1          0.0283    1.4224    0.8092 C.3       1 <0>        -0.1553
      2 C2         -0.0582    0.0594    0.1722 C.2       1 <0>         0.3620
      3 N1          1.0104   -0.5185   -0.2628 N.2       1 <0>        -0.6068
      4 C3          2.2848    0.2042   -0.2652 C.3       1 <0>         0.1140
      5 H1          2.0962    1.2569   -0.0546 H         1 <0>         0.0779
      6 C4          3.1771   -0.3645    0.8198 C.3       1 <0>        -0.1052
      7 C5          4.6221    0.0906    0.6370 C.3       1 <0>        -0.0824
      8 C6          4.6542    1.5622    0.3139 C.ar      1 <0>        -0.0193
      9 C7          5.0180    2.4766    1.2805 C.ar      1 <0>        -0.1977
     10 C8          5.0568    3.8313    0.9762 C.ar      1 <0>         0.1311
     11 C9          4.7318    4.2741   -0.3015 C.ar      1 <0>         0.0412
     12 C10         4.3610    3.3593   -1.2783 C.ar      1 <0>         0.1341
     13 C11         4.3184    1.9976   -0.9633 C.ar      1 <0>        -0.0993
     14 C12         3.8942    1.0115   -2.0013 C.2       1 <0>        -0.0583
     15 C13         2.9198    0.0807   -1.6355 C.2       1 <0>         0.0322
     16 C14         2.4879   -0.9343   -2.4034 C.2       1 <0>        -0.1993
     17 C15         2.7978   -1.3375   -3.6716 C.2       1 <0>         0.3861
     18 O1          2.2618   -2.3719   -4.0465 O.2       1 <0>        -0.4851
     19 C16         3.6420   -0.7264   -4.5923 C.2       1 <0>         0.1163
     20 C17         4.3945    0.3820   -4.3581 C.2       1 <0>        -0.1892
     21 C18         4.4969    1.1104   -3.2288 C.2       1 <0>        -0.0248
     22 O2          3.7218   -1.2821   -5.8260 O.3       1 <0>        -0.4457
     23 O3          4.0420    3.7838   -2.5292 O.3       1 <0>        -0.3236
     24 C19         2.6914    4.1951   -2.7500 C.3       1 <0>         0.0387
     25 O4          4.7767    5.6026   -0.5941 O.3       1 <0>        -0.3185
     26 C20         6.0380    6.1342   -1.0045 C.3       1 <0>         0.0378
     27 O5          5.4148    4.7289    1.9320 O.3       1 <0>        -0.3022
     28 C21         5.7368    4.2080    3.2231 C.3       1 <0>         0.0226
     29 O6         -1.2530   -0.5566    0.0568 O.3       1 <0>        -0.4670
     30 H2          1.0747    1.7108    0.9095 H         1 <0>         0.0928
     31 H3         -0.4906    2.1492    0.1842 H         1 <0>         0.0922
     32 H4         -0.4365    1.3931    1.7947 H         1 <0>         0.0946
     33 H5          2.8165   -0.0283    1.7920 H         1 <0>         0.0724
     34 H6          3.1373   -1.4531    0.7815 H         1 <0>         0.0862
     35 H7          5.1786   -0.0911    1.5565 H         1 <0>         0.0857
     36 H8          5.0784   -0.4699   -0.1789 H         1 <0>         0.0841
     37 H9          5.2724    2.1390    2.2744 H         1 <0>         0.1416
     38 H10         1.7480   -1.5560   -1.9214 H         1 <0>         0.1594
     39 H11         4.9889    0.7273   -5.1911 H         1 <0>         0.1311
     40 H12         5.1942    1.9317   -3.3038 H         1 <0>         0.1265
     41 H13         2.4761    5.0755   -2.1445 H         1 <0>         0.0558
     42 H14         2.5526    4.4360   -3.8039 H         1 <0>         0.0973
     43 H15         2.0152    3.3873   -2.4699 H         1 <0>         0.0448
     44 H16         5.9431    7.2072   -1.1713 H         1 <0>         0.0945
     45 H17         6.7797    5.9516   -0.2269 H         1 <0>         0.0465
     46 H18         6.3534    5.6494   -1.9284 H         1 <0>         0.0479
     47 H19         4.8738    3.6787    3.6269 H         1 <0>         0.0590
     48 H20         6.5779    3.5199    3.1378 H         1 <0>         0.0586
     49 H21         6.0045    5.0281    3.8894 H         1 <0>         0.1047
     50 H22        -1.2082   -1.4259   -0.3644 H         1 <0>         0.4086
     51 H23         4.3215   -0.8198   -6.4275 H         1 <0>         0.4014
@<TRIPOS>BOND
     1    1    2 1
     2    1   30 1
     3    1   31 1
     4    1   32 1
     5    2    3 2
     6    2   29 1
     7    3    4 1
     8    4    5 1
     9    4   15 1
    10    4    6 1
    11    6    7 1
    12    6   33 1
    13    6   34 1
    14    7    8 1
    15    7   35 1
    16    7   36 1
    17    8   13 ar
    18    8    9 ar
    19    9   10 ar
    20    9   37 1
    21   10   11 ar
    22   10   27 1
    23   11   12 ar
    24   11   25 1
    25   12   13 ar
    26   12   23 1
    27   13   14 1
    28   14   21 2
    29   14   15 1
    30   15   16 2
    31   16   17 1
    32   16   38 1
    33   17   18 2
    34   17   19 1
    35   19   20 2
    36   19   22 1
    37   20   21 1
    38   20   39 1
    39   21   40 1
    40   22   51 1
    41   23   24 1
    42   24   41 1
    43   24   42 1
    44   24   43 1
    45   25   26 1
    46   26   44 1
    47   26   45 1
    48   26   46 1
    49   27   28 1
    50   28   47 1
    51   28   48 1
    52   28   49 1
    53   29   50 1
@<TRIPOS>MOLECULE
ZINC02040495
   51    53     0     0     0
SMALL
USER_CHARGES

@<TRIPOS>ATOM
      1 C1         -0.0254    1.4285   -0.4803 C.3       1 <0>        -0.1765
      2 C2         -0.0106   -0.0753   -0.3821 C.2       1 <0>         0.5121
      3 O1          1.0438   -0.6740   -0.4034 O.2       1 <0>        -0.5333
      4 N1         -1.1692   -0.7547   -0.2705 N.am      1 <0>        -0.7322
      5 C3         -1.1549   -2.2165   -0.1750 C.3       1 <0>         0.1747
      6 H1         -0.2744   -2.5257    0.3882 H         1 <0>         0.1088
      7 C4         -2.3979   -2.6743    0.5634 C.3       1 <0>        -0.1165
      8 C5         -2.6193   -4.1733    0.3880 C.3       1 <0>        -0.0800
      9 C6         -1.3105   -4.9010    0.5605 C.ar      1 <0>        -0.0208
     10 C7         -1.0447   -5.5854    1.7280 C.ar      1 <0>        -0.1979
     11 C8          0.1581   -6.2649    1.8753 C.ar      1 <0>         0.1356
     12 C9          1.0976   -6.2605    0.8499 C.ar      1 <0>         0.0418
     13 C10         0.8373   -5.5692   -0.3261 C.ar      1 <0>         0.1407
     14 C11        -0.3730   -4.8819   -0.4644 C.ar      1 <0>        -0.1035
     15 C12        -0.6466   -4.1093   -1.7112 C.2       1 <0>        -0.0408
     16 C13        -1.0764   -2.8006   -1.5717 C.2       1 <0>        -0.0017
     17 C14        -1.4460   -1.9750   -2.5989 C.2       1 <0>        -0.1286
     18 C15        -1.4898   -2.1353   -3.9305 C.2       1 <0>         0.0994
     19 C16        -1.1298   -3.2464   -4.6857 C.2       1 <0>         0.3576
     20 O2         -1.2583   -3.1685   -5.9003 O.2       1 <0>        -0.5089
     21 C17        -0.6371   -4.4333   -4.1713 C.2       1 <0>        -0.2055
     22 C18        -0.4411   -4.7722   -2.9089 C.2       1 <0>        -0.0005
     23 O3         -1.9469   -1.0710   -4.6343 O.3       1 <0>        -0.4680
     24 O4          1.7501   -5.5602   -1.3328 O.3       1 <0>        -0.3265
     25 C19         2.7896   -4.5826   -1.2572 C.3       1 <0>         0.0377
     26 O5          2.2715   -6.9328    0.9990 O.3       1 <0>        -0.3181
     27 C20         2.2943   -8.2991    0.5808 C.3       1 <0>         0.0374
     28 O6          0.4182   -6.9370    3.0277 O.3       1 <0>        -0.3012
     29 C21        -0.5886   -6.9011    4.0411 C.3       1 <0>         0.0225
     30 H2          0.9969    1.7972   -0.5636 H         1 <0>         0.0948
     31 H3         -0.5931    1.7295   -1.3608 H         1 <0>         0.0907
     32 H4         -0.4908    1.8463    0.4124 H         1 <0>         0.0907
     33 H5         -2.0126   -0.2758   -0.2534 H         1 <0>         0.4050
     34 H6         -2.2863   -2.4510    1.6244 H         1 <0>         0.0848
     35 H7         -3.2631   -2.1371    0.1748 H         1 <0>         0.0827
     36 H8         -3.3312   -4.5249    1.1347 H         1 <0>         0.0893
     37 H9         -3.0140   -4.3677   -0.6092 H         1 <0>         0.0855
     38 H10        -1.7710   -5.5929    2.5274 H         1 <0>         0.1425
     39 H11        -1.7677   -0.9974   -2.2717 H         1 <0>         0.1321
     40 H12        -0.3742   -5.1846   -4.9014 H         1 <0>         0.1394
     41 H13        -0.0440   -5.7691   -2.7864 H         1 <0>         0.1265
     42 H14         3.4158   -4.7846   -0.3882 H         1 <0>         0.0556
     43 H15         3.3970   -4.6275   -2.1611 H         1 <0>         0.0969
     44 H16         2.3488   -3.5900   -1.1646 H         1 <0>         0.0531
     45 H17         3.3069   -8.6913    0.6757 H         1 <0>         0.0946
     46 H18         1.6188   -8.8820    1.2069 H         1 <0>         0.0463
     47 H19         1.9746   -8.3662   -0.4591 H         1 <0>         0.0488
     48 H20        -0.7678   -5.8679    4.3387 H         1 <0>         0.0590
     49 H21        -1.5111   -7.3324    3.6523 H         1 <0>         0.0586
     50 H22        -0.2550   -7.4755    4.9053 H         1 <0>         0.1046
     51 H23        -1.9686   -1.2120   -5.5908 H         1 <0>         0.4107
@<TRIPOS>BOND
     1    1    2 1
     2    1   30 1
     3    1   31 1
     4    1   32 1
     5    2    3 2
     6    2    4 am
     7    4    5 1
     8    4   33 1
     9    5    6 1
    10    5   16 1
    11    5    7 1
    12    7    8 1
    13    7   34 1
    14    7   35 1
    15    8    9 1
    16    8   36 1
    17    8   37 1
    18    9   14 ar
    19    9   10 ar
    20   10   11 ar
    21   10   38 1
    22   11   12 ar
    23   11   28 1
    24   12   13 ar
    25   12   26 1
    26   13   14 ar
    27   13   24 1
    28   14   15 1
    29   15   22 1
    30   15   16 2
    31   16   17 1
    32   17   18 2
    33   17   39 1
    34   18   19 1
    35   18   23 1
    36   19   20 2
    37   19   21 1
    38   21   22 2
    39   21   40 1
    40   22   41 1
    41   23   51 1
    42   24   25 1
    43   25   42 1
    44   25   43 1
    45   25   44 1
    46   26   27 1
    47   27   45 1
    48   27   46 1
    49   27   47 1
    50   28   29 1
    51   29   48 1
    52   29   49 1
    53   29   50 1
@<TRIPOS>MOLECULE
ZINC02040495
   51    53     0     0     0
SMALL
USER_CHARGES

@<TRIPOS>ATOM
      1 C1         -0.0284    1.4293   -0.4778 C.3       1 <0>        -0.1767
      2 C2         -0.0129   -0.0745   -0.3804 C.2       1 <0>         0.5133
      3 O1          1.0419   -0.6727   -0.4014 O.2       1 <0>        -0.5352
      4 N1         -1.1713   -0.7546   -0.2699 N.am      1 <0>        -0.7312
      5 C3         -1.1562   -2.2164   -0.1752 C.3       1 <0>         0.1685
      6 H1         -0.2762   -2.5266    0.3883 H         1 <0>         0.1084
      7 C4         -2.3999   -2.6766    0.5586 C.3       1 <0>        -0.1168
      8 C5         -2.6213   -4.1756    0.3776 C.3       1 <0>        -0.0793
      9 C6         -1.3153   -4.9067    0.5534 C.ar      1 <0>        -0.0232
     10 C7         -1.0582   -5.5960    1.7202 C.ar      1 <0>        -0.1967
     11 C8          0.1423   -6.2778    1.8745 C.ar      1 <0>         0.1330
     12 C9          1.0898   -6.2717    0.8565 C.ar      1 <0>         0.0421
     13 C10         0.8389   -5.5766   -0.3193 C.ar      1 <0>         0.1374
     14 C11        -0.3691   -4.8877   -0.4655 C.ar      1 <0>        -0.0989
     15 C12        -0.6334   -4.1159   -1.7162 C.2       1 <0>        -0.0542
     16 C13        -1.0800   -2.8009   -1.5711 C.2       1 <0>         0.0268
     17 C14        -1.4567   -1.9931   -2.5770 C.2       1 <0>        -0.2158
     18 C15        -1.4974   -2.1542   -3.9332 C.2       1 <0>         0.3893
     19 O2         -1.9764   -1.2222   -4.5653 O.2       1 <0>        -0.4894
     20 C16        -1.0654   -3.2383   -4.6895 C.2       1 <0>         0.1191
     21 C17        -0.5761   -4.4044   -4.1889 C.2       1 <0>        -0.1884
     22 C18        -0.4083   -4.7668   -2.9017 C.2       1 <0>        -0.0195
     23 O3         -1.1385   -3.1234   -6.0380 O.3       1 <0>        -0.4449
     24 O4          1.7595   -5.5657   -1.3188 O.3       1 <0>        -0.3263
     25 C19         2.8002   -4.5904   -1.2317 C.3       1 <0>         0.0375
     26 O5          2.2617   -6.9458    1.0126 O.3       1 <0>        -0.3182
     27 C20         2.2856   -8.3114    0.5923 C.3       1 <0>         0.0378
     28 O6          0.3920   -6.9547    3.0264 O.3       1 <0>        -0.3017
     29 C21        -0.6230   -6.9211    4.0317 C.3       1 <0>         0.0227
     30 H2          0.9938    1.7986   -0.5602 H         1 <0>         0.0947
     31 H3         -0.5957    1.7305   -1.3585 H         1 <0>         0.0917
     32 H4         -0.4946    1.8464    0.4148 H         1 <0>         0.0905
     33 H5         -2.0149   -0.2761   -0.2531 H         1 <0>         0.4055
     34 H6         -2.2905   -2.4569    1.6206 H         1 <0>         0.0847
     35 H7         -3.2642   -2.1380    0.1701 H         1 <0>         0.0835
     36 H8         -3.3373   -4.5286    1.1197 H         1 <0>         0.0891
     37 H9         -3.0121   -4.3664   -0.6219 H         1 <0>         0.0850
     38 H10        -1.7902   -5.6054    2.5142 H         1 <0>         0.1419
     39 H11        -1.7954   -1.0220   -2.2473 H         1 <0>         0.1367
     40 H12        -0.2789   -5.1392   -4.9226 H         1 <0>         0.1325
     41 H13        -0.0246   -5.7689   -2.7793 H         1 <0>         0.1281
     42 H14         3.4145   -4.6331   -2.1311 H         1 <0>         0.0959
     43 H15         2.3606   -3.5973   -1.1389 H         1 <0>         0.0531
     44 H16         3.4194   -4.7966   -0.3586 H         1 <0>         0.0551
     45 H17         1.9730   -8.3763   -0.4499 H         1 <0>         0.0481
     46 H18         3.2970   -8.7050    0.6934 H         1 <0>         0.0942
     47 H19         1.6051   -8.8945    1.2127 H         1 <0>         0.0462
     48 H20        -0.8031   -5.8888    4.3318 H         1 <0>         0.0589
     49 H21        -1.5429   -7.3495    3.6338 H         1 <0>         0.0583
     50 H22        -0.2973   -7.4993    4.8964 H         1 <0>         0.1044
     51 H23        -0.8264   -3.9035   -6.5167 H         1 <0>         0.4024
@<TRIPOS>BOND
     1    1    2 1
     2    1   30 1
     3    1   31 1
     4    1   32 1
     5    2    3 2
     6    2    4 am
     7    4    5 1
     8    4   33 1
     9    5    6 1
    10    5   16 1
    11    5    7 1
    12    7    8 1
    13    7   34 1
    14    7   35 1
    15    8    9 1
    16    8   36 1
    17    8   37 1
    18    9   14 ar
    19    9   10 ar
    20   10   11 ar
    21   10   38 1
    22   11   12 ar
    23   11   28 1
    24   12   13 ar
    25   12   26 1
    26   13   14 ar
    27   13   24 1
    28   14   15 1
    29   15   22 2
    30   15   16 1
    31   16   17 2
    32   17   18 1
    33   17   39 1
    34   18   19 2
    35   18   20 1
    36   20   21 2
    37   20   23 1
    38   21   22 1
    39   21   40 1
    40   22   41 1
    41   23   51 1
    42   24   25 1
    43   25   42 1
    44   25   43 1
    45   25   44 1
    46   26   27 1
    47   27   45 1
    48   27   46 1
    49   27   47 1
    50   28   29 1
    51   29   48 1
    52   29   49 1
    53   29   50 1
@<TRIPOS>MOLECULE
ZINC05503291
   44    47     0     0     0
SMALL
USER_CHARGES
2-(3-methoxyphenyl)-6-pyrrolidin-1-yl-1H-quinolin-4-one
@<TRIPOS>ATOM
      1 C1         -3.9348    6.0593    0.0959 C.3       1 <0>         0.0249
      2 O1         -2.6387    5.4577    0.0884 O.3       1 <0>        -0.3124
      3 C2         -2.5889    4.0997    0.0656 C.ar      1 <0>         0.1339
      4 C3         -3.7655    3.3623    0.0502 C.ar      1 <0>        -0.1908
      5 C4         -3.7211    1.9807    0.0265 C.ar      1 <0>        -0.0736
      6 C5         -2.5069    1.3251    0.0131 C.ar      1 <0>        -0.1425
      7 C6         -1.3188    2.0578    0.0337 C.ar      1 <0>        -0.0373
      8 C7         -1.3652    3.4523    0.0571 C.ar      1 <0>        -0.1162
      9 C8         -0.0163    1.3591    0.0246 C.2       1 <0>         0.2480
     10 C9          1.1380    2.1031    0.0340 C.2       1 <0>        -0.2987
     11 C10         2.3904    1.4571    0.0200 C.2       1 <0>         0.4186
     12 O2          3.4286    2.0992    0.0275 O.2       1 <0>        -0.4905
     13 C11         2.4101   -0.0168   -0.0049 C.ar      1 <0>        -0.1888
     14 C12         3.6139   -0.7215   -0.0206 C.ar      1 <0>        -0.0025
     15 C13         3.5948   -2.1042   -0.0443 C.ar      1 <0>         0.0414
     16 C14         2.3805   -2.7892   -0.0520 C.ar      1 <0>        -0.0857
     17 C15         1.1881   -2.1017   -0.0366 C.ar      1 <0>        -0.1623
     18 C16         1.1877   -0.7097   -0.0131 C.ar      1 <0>         0.1940
     19 N1          0.0021   -0.0041    0.0017 N.pl3     1 <0>        -0.6073
     20 H1         -0.8379   -0.4891   -0.0041 H         1 <0>         0.4165
     21 N2          4.7977   -2.8178   -0.0601 N.pl3     1 <0>        -0.4795
     22 C17         4.9397   -3.6490    1.1626 C.3       1 <0>         0.0375
     23 C18         5.9863   -4.7136    0.7480 C.3       1 <0>        -0.1243
     24 C19         5.6195   -5.0034   -0.7255 C.3       1 <0>        -0.1324
     25 C20         4.8384   -3.7628   -1.1971 C.3       1 <0>         0.0359
     26 H2         -4.4789    5.7613   -0.8004 H         1 <0>         0.0582
     27 H3         -4.4826    5.7313    0.9793 H         1 <0>         0.0582
     28 H4         -3.8317    7.1443    0.1144 H         1 <0>         0.1049
     29 H5         -4.7187    3.8700    0.0565 H         1 <0>         0.1353
     30 H6         -4.6397    1.4128    0.0143 H         1 <0>         0.1343
     31 H7         -2.4758    0.2458   -0.0096 H         1 <0>         0.1237
     32 H8         -0.4495    4.0247    0.0683 H         1 <0>         0.1462
     33 H9          1.0861    3.1817    0.0523 H         1 <0>         0.1552
     34 H10         4.5545   -0.1909   -0.0146 H         1 <0>         0.1474
     35 H11         2.3753   -3.8690   -0.0705 H         1 <0>         0.1304
     36 H12         0.2530   -2.6420   -0.0432 H         1 <0>         0.1338
     37 H13         5.3095   -3.0495    1.9945 H         1 <0>         0.0865
     38 H14         3.9914   -4.1212    1.4191 H         1 <0>         0.0497
     39 H15         5.8830   -5.6129    1.3553 H         1 <0>         0.0745
     40 H16         6.9975   -4.3137    0.8223 H         1 <0>         0.0780
     41 H17         4.9926   -5.8927   -0.7915 H         1 <0>         0.0683
     42 H18         6.5218   -5.1321   -1.3233 H         1 <0>         0.0756
     43 H19         3.8249   -4.0474   -1.4798 H         1 <0>         0.0504
     44 H20         5.3447   -3.3018   -2.0452 H         1 <0>         0.0836
@<TRIPOS>BOND
     1    1    2 1
     2    1   26 1
     3    1   27 1
     4    1   28 1
     5    2    3 1
     6    3    8 ar
     7    3    4 ar
     8    4    5 ar
     9    4   29 1
    10    5    6 ar
    11    5   30 1
    12    6    7 ar
    13    6   31 1
    14    7    8 ar
    15    7    9 1
    16    8   32 1
    17    9   19 1
    18    9   10 2
    19   10   11 1
    20   10   33 1
    21   11   12 2
    22   11   13 1
    23   13   18 ar
    24   13   14 ar
    25   14   15 ar
    26   14   34 1
    27   15   16 ar
    28   15   21 1
    29   16   17 ar
    30   16   35 1
    31   17   18 ar
    32   17   36 1
    33   18   19 1
    34   19   20 1
    35   21   25 1
    36   21   22 1
    37   22   23 1
    38   22   37 1
    39   22   38 1
    40   23   24 1
    41   23   39 1
    42   23   40 1
    43   24   25 1
    44   24   41 1
    45   24   42 1
    46   25   43 1
    47   25   44 1
@<TRIPOS>MOLECULE
ZINC00023387
   33    36     0     0     0
SMALL
USER_CHARGES
(3-fluorophenyl)BLAHone
@<TRIPOS>ATOM
      1 C1         -0.6635    9.8641    0.5387 C.ar      1 <0>        -0.0880
      2 C2         -1.8715    9.2278    0.7571 C.ar      1 <0>        -0.1165
      3 C3         -1.9781    7.8622    0.5718 C.ar      1 <0>        -0.0867
      4 C4         -0.8753    7.1302    0.1736 C.ar      1 <0>        -0.1536
      5 C5          0.3335    7.7669   -0.0500 C.ar      1 <0>         0.1031
      6 C6          0.4389    9.1352    0.1356 C.ar      1 <0>        -0.1491
      7 F1          1.4108    7.0532   -0.4441 F         1 <0>        -0.1369
      8 C7         -3.2955    7.1703    0.8098 C.3       1 <0>         0.2007
      9 H1         -3.9294    7.7973    1.4368 H         1 <0>         0.1210
     10 C8         -3.9943    6.9117   -0.5329 C.3       1 <0>        -0.1642
     11 C9         -3.1158    5.9766   -1.3399 C.2       1 <0>         0.4106
     12 O1         -2.9230    6.1603   -2.5239 O.2       1 <0>        -0.4449
     13 C10        -2.5067    4.8413   -0.6375 C.ar      1 <0>        -0.2449
     14 C11        -1.9401    3.7784   -1.3511 C.ar      1 <0>         0.0007
     15 C12        -1.3690    2.7255   -0.6697 C.ar      1 <0>        -0.0316
     16 C13        -1.3563    2.7166    0.7295 C.ar      1 <0>         0.1190
     17 C14        -1.9169    3.7651    1.4419 C.ar      1 <0>        -0.1880
     18 C15        -2.4948    4.8307    0.7701 C.ar      1 <0>         0.2762
     19 N1         -3.0621    5.8839    1.4770 N.pl3     1 <0>        -0.7279
     20 O2         -0.7370    1.5751    1.1516 O.3       1 <0>        -0.3030
     21 C16        -0.0127    1.0858    0.0080 C.3       1 <0>         0.2117
     22 O3         -0.7588    1.5874   -1.1165 O.3       1 <0>        -0.3044
     23 H2         -0.5816   10.9312    0.6835 H         1 <0>         0.1370
     24 H3         -2.7326    9.7983    1.0725 H         1 <0>         0.1342
     25 H4         -0.9576    6.0626    0.0331 H         1 <0>         0.1443
     26 H5          1.3825    9.6323   -0.0342 H         1 <0>         0.1371
     27 H6         -4.8888    6.4959   -0.3685 H         1 <0>         0.1038
     28 H7         -4.1239    7.8520   -1.0687 H         1 <0>         0.1105
     29 H8         -1.9503    3.7838   -2.4311 H         1 <0>         0.1475
     30 H9         -1.9030    3.7519    2.5217 H         1 <0>         0.1448
     31 H10        -3.3036    5.7691    2.4094 H         1 <0>         0.4142
     32 H11         0.0021   -0.0041    0.0020 H         1 <0>         0.1352
     33 H12         1.0030    1.4813    0.0004 H         1 <0>         0.0879
@<TRIPOS>BOND
     1    1    6 ar
     2    1    2 ar
     3    1   23 1
     4    2    3 ar
     5    2   24 1
     6    3    4 ar
     7    3    8 1
     8    4    5 ar
     9    4   25 1
    10    5    6 ar
    11    5    7 1
    12    6   26 1
    13    8    9 1
    14    8   19 1
    15    8   10 1
    16   10   11 1
    17   10   27 1
    18   10   28 1
    19   11   12 2
    20   11   13 1
    21   13   18 ar
    22   13   14 ar
    23   14   15 ar
    24   14   29 1
    25   15   22 1
    26   15   16 ar
    27   16   17 ar
    28   16   20 1
    29   17   18 ar
    30   17   30 1
    31   18   19 1
    32   19   31 1
    33   20   21 1
    34   21   22 1
    35   21   32 1
    36   21   33 1
@<TRIPOS>MOLECULE
ZINC03828422
   33    36     0     0     0
SMALL
USER_CHARGES
(3-fluorophenyl)BLAHone
@<TRIPOS>ATOM
      1 C1         -0.1140   -1.3527   -3.8880 C.ar      1 <0>        -0.0851
      2 C2          0.0717   -1.4777   -2.5235 C.ar      1 <0>        -0.1282
      3 C3         -0.1611   -2.6899   -1.9015 C.ar      1 <0>        -0.0862
      4 C4         -0.5907   -3.7756   -2.6411 C.ar      1 <0>        -0.1405
      5 C5         -0.7824   -3.6501   -4.0064 C.ar      1 <0>         0.1007
      6 C6         -0.5434   -2.4367   -4.6295 C.ar      1 <0>        -0.1477
      7 F1         -1.2028   -4.7106   -4.7303 F         1 <0>        -0.1370
      8 C7          0.0477   -2.8261   -0.4152 C.3       1 <0>         0.2006
      9 H1          0.1679   -3.8785   -0.1581 H         1 <0>         0.1193
     10 C8         -1.1648   -2.2494    0.3299 C.3       1 <0>        -0.1648
     11 C9         -1.2487   -0.7714    0.0047 C.2       1 <0>         0.4114
     12 O1         -2.3118   -0.2419   -0.2449 O.2       1 <0>        -0.4450
     13 C10         0.0021   -0.0041    0.0020 C.ar      1 <0>        -0.2437
     14 C11        -0.0169    1.3958    0.0097 C.ar      1 <0>         0.0009
     15 C12         1.1705    2.0952    0.0021 C.ar      1 <0>        -0.0334
     16 C13         2.3907    1.4104   -0.0119 C.ar      1 <0>         0.1195
     17 C14         2.4163    0.0246   -0.0182 C.ar      1 <0>        -0.1882
     18 C15         1.2301   -0.6921   -0.0105 C.ar      1 <0>         0.2778
     19 N1          1.2473   -2.0815   -0.0137 N.pl3     1 <0>        -0.7268
     20 O2          3.4010    2.3261   -0.0167 O.3       1 <0>        -0.3034
     21 C16         2.7952    3.5681   -0.4197 C.3       1 <0>         0.2123
     22 O3          1.4261    3.4375    0.0058 O.3       1 <0>        -0.3050
     23 H2          0.0725   -0.4063   -4.3737 H         1 <0>         0.1340
     24 H3          0.4032   -0.6287   -1.9441 H         1 <0>         0.1385
     25 H4         -0.7771   -4.7214   -2.1541 H         1 <0>         0.1395
     26 H5         -0.6930   -2.3376   -5.6944 H         1 <0>         0.1373
     27 H6         -1.0468   -2.3847    1.3136 H         1 <0>         0.1037
     28 H7         -2.0744   -2.7519    0.0010 H         1 <0>         0.1101
     29 H8         -0.9581    1.9253    0.0171 H         1 <0>         0.1473
     30 H9          3.3618   -0.4973   -0.0288 H         1 <0>         0.1445
     31 H10         2.0503   -2.5582    0.2485 H         1 <0>         0.4143
     32 H11         2.8499    3.6870   -1.5019 H         1 <0>         0.0879
     33 H12         3.2738    4.4083    0.0833 H         1 <0>         0.1352
@<TRIPOS>BOND
     1    1    6 ar
     2    1    2 ar
     3    1   23 1
     4    2    3 ar
     5    2   24 1
     6    3    4 ar
     7    3    8 1
     8    4    5 ar
     9    4   25 1
    10    5    6 ar
    11    5    7 1
    12    6   26 1
    13    8    9 1
    14    8   19 1
    15    8   10 1
    16   10   11 1
    17   10   27 1
    18   10   28 1
    19   11   12 2
    20   11   13 1
    21   13   18 ar
    22   13   14 ar
    23   14   15 ar
    24   14   29 1
    25   15   22 1
    26   15   16 ar
    27   16   17 ar
    28   16   20 1
    29   17   18 ar
    30   17   30 1
    31   18   19 1
    32   19   31 1
    33   20   21 1
    34   21   22 1
    35   21   32 1
    36   21   33 1
@<TRIPOS>MOLECULE
ZINC13779237
   34    36     0     0     0
SMALL
USER_CHARGES
(2S)-2-(3-methoxyphenyl)-2,3-dihydro-1H-quinolin-4-one
@<TRIPOS>ATOM
      1 C1         -3.7993    0.9350   -4.8203 C.3       1 <0>         0.0266
      2 O1         -3.1390    0.3917   -3.6753 O.3       1 <0>        -0.3172
      3 C2         -2.2873    1.2130   -3.0067 C.ar      1 <0>         0.1278
      4 C3         -2.0911    2.5152   -3.4437 C.ar      1 <0>        -0.2027
      5 C4         -1.2246    3.3478   -2.7627 C.ar      1 <0>        -0.0758
      6 C5         -0.5526    2.8844   -1.6465 C.ar      1 <0>        -0.1534
      7 C6         -0.7467    1.5875   -1.2088 C.ar      1 <0>        -0.0756
      8 C7         -1.6087    0.7492   -1.8893 C.ar      1 <0>        -0.1396
      9 C8         -0.0127    1.0858    0.0080 C.3       1 <0>         0.2001
     10 H1          0.0021   -0.0041    0.0020 H         1 <0>         0.1141
     11 C9         -0.7166    1.5839    1.2786 C.3       1 <0>        -0.1653
     12 C10        -0.6461    3.0982    1.2835 C.2       1 <0>         0.4075
     13 O2         -1.6052    3.7718    1.5967 O.2       1 <0>        -0.4510
     14 C11         0.6281    3.7201    0.8941 C.ar      1 <0>        -0.2459
     15 C12         0.8744    5.0707    1.1533 C.ar      1 <0>        -0.0196
     16 C13         2.0757    5.6285    0.7737 C.ar      1 <0>        -0.1853
     17 C14         3.0372    4.8572    0.1378 C.ar      1 <0>        -0.0410
     18 C15         2.8084    3.5217   -0.1238 C.ar      1 <0>        -0.2034
     19 C16         1.6051    2.9385    0.2513 C.ar      1 <0>         0.2619
     20 N1          1.3634    1.5964   -0.0024 N.pl3     1 <0>        -0.7333
     21 H2         -4.3972    1.7957   -4.5205 H         1 <0>         0.0564
     22 H3         -3.0562    1.2467   -5.5543 H         1 <0>         0.0560
     23 H4         -4.4480    0.1771   -5.2593 H         1 <0>         0.1020
     24 H5         -2.6152    2.8774   -4.3158 H         1 <0>         0.1290
     25 H6         -1.0715    4.3615   -3.1024 H         1 <0>         0.1256
     26 H7          0.1248    3.5369   -1.1155 H         1 <0>         0.1363
     27 H8         -1.7568   -0.2651   -1.5495 H         1 <0>         0.1333
     28 H9         -1.6686    1.2779    1.2740 H         1 <0>         0.0952
     29 H10        -0.2118    1.1878    2.1597 H         1 <0>         0.1112
     30 H11         0.1275    5.6739    1.6479 H         1 <0>         0.1322
     31 H12         2.2699    6.6720    0.9728 H         1 <0>         0.1269
     32 H13         3.9745    5.3064   -0.1557 H         1 <0>         0.1277
     33 H14         3.5643    2.9306   -0.6194 H         1 <0>         0.1290
     34 H15         2.1028    0.9961   -0.1861 H         1 <0>         0.4104
@<TRIPOS>BOND
     1    1    2 1
     2    1   21 1
     3    1   22 1
     4    1   23 1
     5    2    3 1
     6    3    8 ar
     7    3    4 ar
     8    4    5 ar
     9    4   24 1
    10    5    6 ar
    11    5   25 1
    12    6    7 ar
    13    6   26 1
    14    7    8 ar
    15    7    9 1
    16    8   27 1
    17    9   10 1
    18    9   20 1
    19    9   11 1
    20   11   12 1
    21   11   28 1
    22   11   29 1
    23   12   13 2
    24   12   14 1
    25   14   19 ar
    26   14   15 ar
    27   15   16 ar
    28   15   30 1
    29   16   17 ar
    30   16   31 1
    31   17   18 ar
    32   17   32 1
    33   18   19 ar
    34   18   33 1
    35   19   20 1
    36   20   34 1
@<TRIPOS>MOLECULE
ZINC01861886
   37    40     0     0     0
SMALL
USER_CHARGES
(3-methoxyphenyl)BLAHone
@<TRIPOS>ATOM
      1 C1          2.6102    1.4526    6.7035 C.3       1 <0>         0.0265
      2 O1          2.8627    1.9966    5.4064 O.3       1 <0>        -0.3169
      3 C2          1.8148    2.0435    4.5424 C.ar      1 <0>         0.1283
      4 C3          0.5689    1.5755    4.9349 C.ar      1 <0>        -0.2018
      5 C4         -0.4944    1.6240    4.0547 C.ar      1 <0>        -0.0747
      6 C5         -0.3180    2.1379    2.7830 C.ar      1 <0>        -0.1531
      7 C6          0.9222    2.6052    2.3897 C.ar      1 <0>        -0.0770
      8 C7          1.9902    2.5545    3.2648 C.ar      1 <0>        -0.1383
      9 C8          1.1108    3.1646    1.0032 C.3       1 <0>         0.2011
     10 H1          2.0003    3.7943    0.9812 H         1 <0>         0.1181
     11 C9          1.2711    2.0124    0.0007 C.3       1 <0>        -0.1631
     12 C10        -0.0144    1.2094    0.0087 C.2       1 <0>         0.4123
     13 O2          0.0021   -0.0041    0.0020 O.2       1 <0>        -0.4468
     14 C11        -1.2795    1.9527    0.0186 C.ar      1 <0>        -0.2415
     15 C12        -2.4880    1.3124   -0.2807 C.ar      1 <0>         0.0009
     16 C13        -3.6643    2.0301   -0.2617 C.ar      1 <0>        -0.0346
     17 C14        -3.6523    3.3931    0.0545 C.ar      1 <0>         0.1184
     18 C15        -2.4573    4.0332    0.3620 C.ar      1 <0>        -0.1893
     19 C16        -1.2665    3.3245    0.3403 C.ar      1 <0>         0.2802
     20 N1         -0.0642    3.9595    0.6263 N.pl3     1 <0>        -0.7263
     21 O3         -4.9322    3.8606    0.0030 O.3       1 <0>        -0.3039
     22 C17        -5.6726    2.8786   -0.7452 C.3       1 <0>         0.2126
     23 O4         -4.9540    1.6534   -0.5105 O.3       1 <0>        -0.3057
     24 H2          2.2655    0.4232    6.6049 H         1 <0>         0.0565
     25 H3          3.5278    1.4737    7.2913 H         1 <0>         0.1021
     26 H4          1.8446    2.0458    7.2036 H         1 <0>         0.0561
     27 H5          0.4308    1.1734    5.9277 H         1 <0>         0.1291
     28 H6         -1.4643    1.2598    4.3597 H         1 <0>         0.1258
     29 H7         -1.1506    2.1746    2.0961 H         1 <0>         0.1335
     30 H8          2.9598    2.9159    2.9556 H         1 <0>         0.1341
     31 H9          2.0435    1.4387    0.2730 H         1 <0>         0.0977
     32 H10         1.4503    2.4125   -0.9972 H         1 <0>         0.1138
     33 H11        -2.4984    0.2605   -0.5250 H         1 <0>         0.1465
     34 H12        -2.4544    5.0854    0.6053 H         1 <0>         0.1440
     35 H13        -0.0015    4.9263    0.5774 H         1 <0>         0.4134
     36 H14        -5.6714    3.1257   -1.8068 H         1 <0>         0.0872
     37 H15        -6.6940    2.8006   -0.3727 H         1 <0>         0.1346
@<TRIPOS>BOND
     1    1    2 1
     2    1   24 1
     3    1   25 1
     4    1   26 1
     5    2    3 1
     6    3    8 ar
     7    3    4 ar
     8    4    5 ar
     9    4   27 1
    10    5    6 ar
    11    5   28 1
    12    6    7 ar
    13    6   29 1
    14    7    8 ar
    15    7    9 1
    16    8   30 1
    17    9   10 1
    18    9   20 1
    19    9   11 1
    20   11   12 1
    21   11   31 1
    22   11   32 1
    23   12   13 2
    24   12   14 1
    25   14   19 ar
    26   14   15 ar
    27   15   16 ar
    28   15   33 1
    29   16   23 1
    30   16   17 ar
    31   17   18 ar
    32   17   21 1
    33   18   19 ar
    34   18   34 1
    35   19   20 1
    36   20   35 1
    37   21   22 1
    38   22   23 1
    39   22   36 1
    40   22   37 1
@<TRIPOS>MOLECULE
ZINC01861889
   37    40     0     0     0
SMALL
USER_CHARGES
(3-methoxyphenyl)BLAHone
@<TRIPOS>ATOM
      1 C1         -1.3804   -4.5130   -6.1413 C.3       1 <0>         0.0265
      2 O1         -1.2041   -4.7158   -4.7378 O.3       1 <0>        -0.3168
      3 C2         -0.7821   -3.6495   -4.0086 C.ar      1 <0>         0.1286
      4 C3         -0.5426   -2.4328   -4.6312 C.ar      1 <0>        -0.2022
      5 C4         -0.1133   -1.3506   -3.8879 C.ar      1 <0>        -0.0750
      6 C5          0.0773   -1.4789   -2.5242 C.ar      1 <0>        -0.1538
      7 C6         -0.1611   -2.6899   -1.9015 C.ar      1 <0>        -0.0756
      8 C7         -0.5851   -3.7769   -2.6414 C.ar      1 <0>        -0.1384
      9 C8          0.0477   -2.8261   -0.4152 C.3       1 <0>         0.2008
     10 H1          0.1679   -3.8785   -0.1581 H         1 <0>         0.1182
     11 C9         -1.1648   -2.2494    0.3299 C.3       1 <0>        -0.1644
     12 C10        -1.2487   -0.7714    0.0047 C.2       1 <0>         0.4130
     13 O2         -2.3118   -0.2419   -0.2449 O.2       1 <0>        -0.4467
     14 C11         0.0021   -0.0041    0.0020 C.ar      1 <0>        -0.2421
     15 C12        -0.0169    1.3958    0.0097 C.ar      1 <0>         0.0007
     16 C13         1.1705    2.0952    0.0021 C.ar      1 <0>        -0.0349
     17 C14         2.3907    1.4104   -0.0119 C.ar      1 <0>         0.1186
     18 C15         2.4163    0.0246   -0.0182 C.ar      1 <0>        -0.1889
     19 C16         1.2301   -0.6921   -0.0105 C.ar      1 <0>         0.2801
     20 N1          1.2473   -2.0815   -0.0137 N.pl3     1 <0>        -0.7263
     21 O3          3.4010    2.3261   -0.0167 O.3       1 <0>        -0.3037
     22 C17         2.7952    3.5681   -0.4197 C.3       1 <0>         0.2124
     23 O4          1.4261    3.4375    0.0058 O.3       1 <0>        -0.3054
     24 H2         -1.7188   -5.4408   -6.6027 H         1 <0>         0.1021
     25 H3         -2.1243   -3.7333   -6.3051 H         1 <0>         0.0566
     26 H4         -0.4326   -4.2103   -6.5865 H         1 <0>         0.0560
     27 H5         -0.6913   -2.3321   -5.6961 H         1 <0>         0.1290
     28 H6          0.0732   -0.4034   -4.3720 H         1 <0>         0.1252
     29 H7          0.4126   -0.6315   -1.9447 H         1 <0>         0.1334
     30 H8         -0.7672   -4.7239   -2.1551 H         1 <0>         0.1342
     31 H9         -1.0468   -2.3847    1.3136 H         1 <0>         0.1027
     32 H10        -2.0744   -2.7519    0.0010 H         1 <0>         0.1098
     33 H11        -0.9581    1.9253    0.0171 H         1 <0>         0.1466
     34 H12         3.3618   -0.4973   -0.0288 H         1 <0>         0.1439
     35 H13         2.0503   -2.5582    0.2485 H         1 <0>         0.4136
     36 H14         2.8499    3.6870   -1.5019 H         1 <0>         0.0869
     37 H15         3.2731    4.4099    0.0814 H         1 <0>         0.1348
@<TRIPOS>BOND
     1    1    2 1
     2    1   24 1
     3    1   25 1
     4    1   26 1
     5    2    3 1
     6    3    8 ar
     7    3    4 ar
     8    4    5 ar
     9    4   27 1
    10    5    6 ar
    11    5   28 1
    12    6    7 ar
    13    6   29 1
    14    7    8 ar
    15    7    9 1
    16    8   30 1
    17    9   10 1
    18    9   20 1
    19    9   11 1
    20   11   12 1
    21   11   31 1
    22   11   32 1
    23   12   13 2
    24   12   14 1
    25   14   19 ar
    26   14   15 ar
    27   15   16 ar
    28   15   33 1
    29   16   23 1
    30   16   17 ar
    31   17   18 ar
    32   17   21 1
    33   18   19 ar
    34   18   34 1
    35   19   20 1
    36   20   35 1
    37   21   22 1
    38   22   23 1
    39   22   36 1
    40   22   37 1
@<TRIPOS>MOLECULE
ZINC13779239
   34    36     0     0     0
SMALL
USER_CHARGES
(2R)-2-(3-methoxyphenyl)-2,3-dihydro-1H-quinolin-4-one
@<TRIPOS>ATOM
      1 C1          6.0817    1.0399    0.7354 C.3       1 <0>         0.0266
      2 O1          4.7693    0.4757    0.7713 O.3       1 <0>        -0.3172
      3 C2          3.7425    1.2767    0.3828 C.ar      1 <0>         0.1278
      4 C3          3.9930    2.5793   -0.0247 C.ar      1 <0>        -0.2030
      5 C4          2.9477    3.3915   -0.4186 C.ar      1 <0>        -0.0756
      6 C5          1.6523    2.9075   -0.4077 C.ar      1 <0>        -0.1537
      7 C6          1.4001    1.6100   -0.0027 C.ar      1 <0>        -0.0747
      8 C7          2.4417    0.7953    0.3978 C.ar      1 <0>        -0.1400
      9 C8         -0.0127    1.0858    0.0080 C.3       1 <0>         0.2000
     10 H1          0.0021   -0.0041    0.0020 H         1 <0>         0.1141
     11 C9         -0.7367    1.5837    1.2673 C.3       1 <0>        -0.1665
     12 C10        -0.8046    3.0965    1.1945 C.2       1 <0>         0.4077
     13 O2         -0.5848    3.7824    2.1707 O.2       1 <0>        -0.4508
     14 C11        -1.1446    3.7015   -0.1018 C.ar      1 <0>        -0.2460
     15 C12        -1.5155    5.0456   -0.1895 C.ar      1 <0>        -0.0195
     16 C13        -1.8250    5.5876   -1.4178 C.ar      1 <0>        -0.1852
     17 C14        -1.7697    4.8068   -2.5628 C.ar      1 <0>        -0.0409
     18 C15        -1.4060    3.4776   -2.4915 C.ar      1 <0>        -0.2033
     19 C16        -1.0913    2.9102   -1.2635 C.ar      1 <0>         0.2616
     20 N1         -0.7276    1.5745   -1.1772 N.pl3     1 <0>        -0.7334
     21 H2          6.8059    0.2968    1.0692 H         1 <0>         0.1020
     22 H3          6.3181    1.3455   -0.2838 H         1 <0>         0.0560
     23 H4          6.1221    1.9079    1.3936 H         1 <0>         0.0564
     24 H5          5.0045    2.9577   -0.0334 H         1 <0>         0.1288
     25 H6          3.1422    4.4054   -0.7358 H         1 <0>         0.1255
     26 H7          0.8364    3.5441   -0.7165 H         1 <0>         0.1360
     27 H8          2.2437   -0.2169    0.7181 H         1 <0>         0.1333
     28 H9         -1.6571    1.1940    1.2987 H         1 <0>         0.1004
     29 H10        -0.1835    1.2793    2.1559 H         1 <0>         0.1068
     30 H11        -1.5591    5.6563    0.7003 H         1 <0>         0.1323
     31 H12        -2.1126    6.6262   -1.4893 H         1 <0>         0.1271
     32 H13        -2.0137    5.2437   -3.5199 H         1 <0>         0.1278
     33 H14        -1.3658    2.8792   -3.3897 H         1 <0>         0.1291
     34 H15        -0.9457    0.9642   -1.8988 H         1 <0>         0.4106
@<TRIPOS>BOND
     1    1    2 1
     2    1   21 1
     3    1   22 1
     4    1   23 1
     5    2    3 1
     6    3    8 ar
     7    3    4 ar
     8    4    5 ar
     9    4   24 1
    10    5    6 ar
    11    5   25 1
    12    6    7 ar
    13    6   26 1
    14    7    8 ar
    15    7    9 1
    16    8   27 1
    17    9   10 1
    18    9   20 1
    19    9   11 1
    20   11   12 1
    21   11   28 1
    22   11   29 1
    23   12   13 2
    24   12   14 1
    25   14   19 ar
    26   14   15 ar
    27   15   16 ar
    28   15   30 1
    29   16   17 ar
    30   16   31 1
    31   17   18 ar
    32   17   32 1
    33   18   19 ar
    34   18   33 1
    35   19   20 1
    36   20   34 1
@<TRIPOS>MOLECULE
ZINC03966291
   77    77     0     0     0
SMALL
USER_CHARGES
4-[[3,3-dimethyl-2-(3-methyl-2-methylamino-3-phenyl-butanoyl)amino-butanoyl]-methyl-amino]-2,5-dimethyl-hex-2-enoic acid
@<TRIPOS>ATOM
      1 C1          4.3964   -3.9467   -5.3921 C.3       1 <0>        -0.1462
      2 C2          3.4988   -3.8691   -4.1555 C.3       1 <0>        -0.0995
      3 C3          3.4049   -2.4166   -3.6839 C.3       1 <0>        -0.1394
      4 C4          2.1011   -4.3826   -4.5069 C.3       1 <0>         0.1743
      5 H1          1.6536   -3.7327   -5.2588 H         1 <0>         0.1106
      6 C5          2.2029   -5.7843   -5.0508 C.2       1 <0>        -0.1842
      7 C6          1.7892   -6.0498   -6.2875 C.2       1 <0>        -0.1063
      8 C7          1.3253   -4.9305   -7.1835 C.3       1 <0>        -0.1162
      9 C8          1.7846   -7.4346   -6.7793 C.2       1 <0>         0.4788
     10 O1          2.1587   -8.3373   -6.0567 O.co2     1 <0>        -0.6334
     11 N1          1.2651   -4.3852   -3.3038 N.am      1 <0>        -0.5841
     12 C9          1.6949   -5.1253   -2.1148 C.3       1 <0>         0.0577
     13 C10         0.1006   -3.7068   -3.2909 C.2       1 <0>         0.5114
     14 O2         -0.2887   -3.1512   -4.2962 O.2       1 <0>        -0.5291
     15 C11        -0.7177   -3.6385   -2.0273 C.3       1 <0>         0.1327
     16 H2         -0.0863   -3.8792   -1.1720 H         1 <0>         0.1175
     17 C12        -1.8687   -4.6431   -2.1102 C.3       1 <0>        -0.0679
     18 C13        -2.7446   -4.3164   -3.3213 C.3       1 <0>        -0.1484
     19 C14        -1.3022   -6.0568   -2.2569 C.3       1 <0>        -0.1564
     20 C15        -2.7103   -4.5608   -0.8351 C.3       1 <0>        -0.1282
     21 N2         -1.2598   -2.2867   -1.8690 N.am      1 <0>        -0.6790
     22 C16        -1.5778   -1.8276   -0.6424 C.2       1 <0>         0.5127
     23 O3         -1.4152   -2.5334    0.3303 O.2       1 <0>        -0.5141
     24 C17        -2.1355   -0.4370   -0.4796 C.3       1 <0>         0.0109
     25 H3         -2.7388   -0.1831   -1.3512 H         1 <0>         0.1617
     26 C18        -0.9842    0.5620   -0.3476 C.3       1 <0>        -0.0238
     27 C19        -0.0165    0.3825   -1.5190 C.3       1 <0>        -0.1549
     28 C20        -0.2435    0.3156    0.9682 C.3       1 <0>        -0.1631
     29 C21        -1.5330    1.9654   -0.3599 C.ar      1 <0>        -0.0947
     30 C22        -2.8938    2.1743   -0.4843 C.ar      1 <0>        -0.1654
     31 C23        -3.3977    3.4616   -0.4907 C.ar      1 <0>        -0.0977
     32 C24        -2.5398    4.5402   -0.3834 C.ar      1 <0>        -0.1088
     33 C25        -1.1785    4.3314   -0.2644 C.ar      1 <0>        -0.0958
     34 C26        -0.6751    3.0440   -0.2526 C.ar      1 <0>        -0.0975
     35 C27        -4.3260   -0.8804    0.4519 C.3       1 <0>        -0.0529
     36 H4          3.9278   -3.4079   -6.2156 H         1 <0>         0.0563
     37 H5          5.3638   -3.4974   -5.1677 H         1 <0>         0.0558
     38 H6          4.5371   -4.9902   -5.6740 H         1 <0>         0.0672
     39 H7          3.9220   -4.4826   -3.3602 H         1 <0>         0.0736
     40 H8          2.7654   -2.3613   -2.8029 H         1 <0>         0.0445
     41 H9          4.4007   -2.0507   -3.4336 H         1 <0>         0.0547
     42 H10         2.9817   -1.8030   -4.4792 H         1 <0>         0.0536
     43 H11         2.6117   -6.5734   -4.4371 H         1 <0>         0.1175
     44 H12         2.1065   -4.1735   -7.2534 H         1 <0>         0.0530
     45 H13         1.1118   -5.3250   -8.1769 H         1 <0>         0.0781
     46 H14         0.4222   -4.4832   -6.7683 H         1 <0>         0.0588
     47 H15         0.9953   -5.9383   -1.9203 H         1 <0>         0.0733
     48 H16         2.6908   -5.5352   -2.2823 H         1 <0>         0.0892
     49 H17         1.7181   -4.4531   -1.2571 H         1 <0>         0.0592
     50 H18        -2.1450   -4.3750   -4.2297 H         1 <0>         0.0762
     51 H19        -3.5646   -5.0321   -3.3804 H         1 <0>         0.0613
     52 H20        -3.1482   -3.3093   -3.2168 H         1 <0>         0.0480
     53 H21        -0.6246   -6.2644   -1.4287 H         1 <0>         0.0652
     54 H22        -2.1191   -6.7783   -2.2477 H         1 <0>         0.0705
     55 H23        -0.7593   -6.1346   -3.1989 H         1 <0>         0.0702
     56 H24        -3.1139   -3.5537   -0.7305 H         1 <0>         0.0370
     57 H25        -3.5303   -5.2765   -0.8941 H         1 <0>         0.0602
     58 H26        -2.0863   -4.7935    0.0278 H         1 <0>         0.0681
     59 H27        -1.3899   -1.7222   -2.6470 H         1 <0>         0.4170
     60 H28         0.8037    1.0942   -1.4250 H         1 <0>         0.0880
     61 H29         0.3805   -0.6326   -1.5101 H         1 <0>         0.0759
     62 H30        -0.5442    0.5580   -2.4564 H         1 <0>         0.0756
     63 H31        -0.9502    0.3599    1.7969 H         1 <0>         0.0543
     64 H32         0.2252   -0.6682    0.9427 H         1 <0>         0.0847
     65 H33         0.5224    1.0795    1.1026 H         1 <0>         0.0908
     66 H34        -3.5637    1.3318   -0.5727 H         1 <0>         0.1090
     67 H35        -4.4612    3.6247   -0.5841 H         1 <0>         0.1316
     68 H36        -2.9330    5.5460   -0.3929 H         1 <0>         0.1324
     69 H37        -0.5082    5.1741   -0.1809 H         1 <0>         0.1339
     70 H38         0.3885    2.8809   -0.1600 H         1 <0>         0.1322
     71 H39        -4.7542   -0.3256   -0.3829 H         1 <0>         0.1248
     72 H40        -4.2796   -1.9396    0.1987 H         1 <0>         0.1268
     73 H41        -4.9493   -0.7452    1.3359 H         1 <0>         0.1345
     74 O4          1.3655   -7.7036   -8.0320 O.co2     1 <0>        -0.7528
     75 N3         -2.9682   -0.3793    0.7367 N.4       1 <0>        -0.5107
     76 H42        -3.0271    0.5931    1.0610 H         1 <0>         0.4376
     77 H43        -2.5398   -0.9588    1.4681 H         1 <0>         0.4416
@<TRIPOS>BOND
     1    1    2 1
     2    1   36 1
     3    1   37 1
     4    1   38 1
     5    2    3 1
     6    2    4 1
     7    2   39 1
     8    3   40 1
     9    3   41 1
    10    3   42 1
    11    4    5 1
    12    4    6 1
    13    4   11 1
    14    6    7 2
    15    6   43 1
    16    7    8 1
    17    7    9 1
    18    8   44 1
    19    8   45 1
    20    8   46 1
    21    9   10 2
    22    9   74 1
    23   11   12 1
    24   11   13 am
    25   12   47 1
    26   12   48 1
    27   12   49 1
    28   13   14 2
    29   13   15 1
    30   15   16 1
    31   15   17 1
    32   15   21 1
    33   17   18 1
    34   17   19 1
    35   17   20 1
    36   18   50 1
    37   18   51 1
    38   18   52 1
    39   19   53 1
    40   19   54 1
    41   19   55 1
    42   20   56 1
    43   20   57 1
    44   20   58 1
    45   21   22 am
    46   21   59 1
    47   22   23 2
    48   22   24 1
    49   24   25 1
    50   24   26 1
    51   24   75 1
    52   26   27 1
    53   26   28 1
    54   26   29 1
    55   27   60 1
    56   27   61 1
    57   27   62 1
    58   28   63 1
    59   28   64 1
    60   28   65 1
    61   29   34 ar
    62   29   30 ar
    63   30   31 ar
    64   30   66 1
    65   31   32 ar
    66   31   67 1
    67   32   33 ar
    68   32   68 1
    69   33   34 ar
    70   33   69 1
    71   34   70 1
    72   35   71 1
    73   35   72 1
    74   35   73 1
    75   35   75 1
    76   75   76 1
    77   75   77 1
@<TRIPOS>MOLECULE
ZINC05203255
   54    56     0     0     0
SMALL
USER_CHARGES
N-(trimethoxy-methylsulfanyl-oxo-BLAHyl)acetamide
@<TRIPOS>ATOM
      1 C1          5.8137   -0.2263   -2.6930 C.3       1 <0>        -0.1727
      2 C2          4.5620   -0.8369   -2.1170 C.2       1 <0>         0.5137
      3 O1          3.6392   -1.1306   -2.8471 O.2       1 <0>        -0.5365
      4 N1          4.4682   -1.0565   -0.7906 N.am      1 <0>        -0.7296
      5 C3          3.2515   -1.6500   -0.2306 C.3       1 <0>         0.1687
      6 H1          2.8388   -2.3590   -0.9484 H         1 <0>         0.1090
      7 C4          3.6029   -2.3876    1.0447 C.3       1 <0>        -0.1173
      8 C5          2.3496   -2.7126    1.8538 C.3       1 <0>        -0.0802
      9 C6          1.2751   -3.2401    0.9377 C.ar      1 <0>        -0.0199
     10 C7          0.9856   -4.5886    0.9139 C.ar      1 <0>        -0.1973
     11 C8         -0.0121   -5.0711    0.0769 C.ar      1 <0>         0.1357
     12 C9         -0.7250   -4.2007   -0.7408 C.ar      1 <0>         0.0418
     13 C10        -0.4363   -2.8426   -0.7249 C.ar      1 <0>         0.1406
     14 C11         0.5720   -2.3635    0.1171 C.ar      1 <0>        -0.1067
     15 C12         0.8928   -0.9045    0.1285 C.2       1 <0>        -0.0122
     16 C13         2.2368   -0.5534    0.0205 C.2       1 <0>         0.0091
     17 C14         2.7225    0.6987    0.1107 C.2       1 <0>        -0.1879
     18 C15         2.1286    1.9139    0.2881 C.2       1 <0>         0.3998
     19 O2          2.8892    2.8680    0.3836 O.2       1 <0>        -0.5004
     20 C16         0.7702    2.2122    0.3750 C.2       1 <0>        -0.1462
     21 C17        -0.2427    1.2984    0.3536 C.2       1 <0>        -0.0891
     22 C18        -0.1654   -0.0400    0.2566 C.2       1 <0>        -0.0481
     23 S1          0.3236    3.9101    0.5243 S.3       1 <0>        -0.0163
     24 C19        -1.4784    3.7559    0.5975 C.3       1 <0>        -0.1840
     25 O3         -1.1282   -1.9858   -1.5214 O.3       1 <0>        -0.3264
     26 C20        -0.6656   -1.8318   -2.8646 C.3       1 <0>         0.0373
     27 O4         -1.7040   -4.6797   -1.5559 O.3       1 <0>        -0.3177
     28 C21        -3.0255   -4.7414   -1.0155 C.3       1 <0>         0.0376
     29 O5         -0.2931   -6.4009    0.0564 O.3       1 <0>        -0.3012
     30 C22         0.4764   -7.2399    0.9202 C.3       1 <0>         0.0223
     31 H2          6.5256   -0.0321   -1.8908 H         1 <0>         0.0780
     32 H3          6.2561   -0.9153   -3.4125 H         1 <0>         0.0974
     33 H4          5.5646    0.7100   -3.1923 H         1 <0>         0.0979
     34 H5          5.2063   -0.8216   -0.2067 H         1 <0>         0.4054
     35 H6          4.1159   -3.3155    0.7915 H         1 <0>         0.0851
     36 H7          4.2652   -1.7656    1.6468 H         1 <0>         0.0837
     37 H8          2.5880   -3.4661    2.6045 H         1 <0>         0.0900
     38 H9          1.9924   -1.8090    2.3477 H         1 <0>         0.0850
     39 H10         1.5354   -5.2697    1.5465 H         1 <0>         0.1427
     40 H11         3.7978    0.7519    0.0251 H         1 <0>         0.1344
     41 H12        -1.2409    1.7054    0.4191 H         1 <0>         0.1335
     42 H13        -1.1261   -0.5325    0.2848 H         1 <0>         0.1286
     43 H14        -1.8397    3.2814   -0.3149 H         1 <0>         0.0909
     44 H15        -1.7563    3.1474    1.4581 H         1 <0>         0.0908
     45 H16        -1.9241    4.7459    0.6932 H         1 <0>         0.1137
     46 H17        -1.2507   -1.0596   -3.3641 H         1 <0>         0.0964
     47 H18         0.3854   -1.5429   -2.8561 H         1 <0>         0.0533
     48 H19        -0.7787   -2.7755   -3.3983 H         1 <0>         0.0556
     49 H20        -3.0482   -5.4546   -0.1915 H         1 <0>         0.0463
     50 H21        -3.3155   -3.7559   -0.6512 H         1 <0>         0.0483
     51 H22        -3.7209   -5.0608   -1.7918 H         1 <0>         0.0945
     52 H23         0.1517   -8.2741    0.8059 H         1 <0>         0.1047
     53 H24         1.5316   -7.1594    0.6594 H         1 <0>         0.0592
     54 H25         0.3326   -6.9261    1.9541 H         1 <0>         0.0586
@<TRIPOS>BOND
     1    1    2 1
     2    1   31 1
     3    1   32 1
     4    1   33 1
     5    2    3 2
     6    2    4 am
     7    4    5 1
     8    4   34 1
     9    5    6 1
    10    5   16 1
    11    5    7 1
    12    7    8 1
    13    7   35 1
    14    7   36 1
    15    8    9 1
    16    8   37 1
    17    8   38 1
    18    9   14 ar
    19    9   10 ar
    20   10   11 ar
    21   10   39 1
    22   11   12 ar
    23   11   29 1
    24   12   13 ar
    25   12   27 1
    26   13   14 ar
    27   13   25 1
    28   14   15 1
    29   15   22 2
    30   15   16 1
    31   16   17 2
    32   17   18 1
    33   17   40 1
    34   18   19 2
    35   18   20 1
    36   20   21 2
    37   20   23 1
    38   21   22 1
    39   21   41 1
    40   22   42 1
    41   23   24 1
    42   24   43 1
    43   24   44 1
    44   24   45 1
    45   25   26 1
    46   26   46 1
    47   26   47 1
    48   26   48 1
    49   27   28 1
    50   28   49 1
    51   28   50 1
    52   28   51 1
    53   29   30 1
    54   30   52 1
    55   30   53 1
    56   30   54 1
@<TRIPOS>MOLECULE
ZINC13645654
   44    45     0     0     0
SMALL
USER_CHARGES
1,2,3-trimethoxy-5-[(Z)-2-(4-methoxy-3-nitro-phenyl)vinyl]benzene
@<TRIPOS>ATOM
      1 C1         -2.5559   -5.3412   -3.5967 C.3       1 <0>         0.0171
      2 O1         -1.6204   -6.2156   -2.9625 O.3       1 <0>        -0.2788
      3 C2         -0.5360   -5.6408   -2.3797 C.ar      1 <0>         0.2011
      4 C3         -0.3298   -4.2722   -2.4992 C.ar      1 <0>        -0.2160
      5 C4          0.7683   -3.6847   -1.9099 C.ar      1 <0>        -0.0001
      6 C5          1.6755   -4.4681   -1.1904 C.ar      1 <0>        -0.0980
      7 C6          1.4663   -5.8453   -1.0770 C.ar      1 <0>        -0.0154
      8 C7          0.3623   -6.4231   -1.6660 C.ar      1 <0>        -0.0844
      9 N1          0.1368   -7.8810   -1.5423 N.pl3     1 <0>         0.0353
     10 O2          0.9241   -8.5681   -0.9166 O.2       1 <0>        -0.1769
     11 O3         -0.8360   -8.3933   -2.0663 O.3       1 <0>        -0.1356
     12 C8          2.8517   -3.8448   -0.5588 C.2       1 <0>        -0.0958
     13 C9          2.7511   -2.6227   -0.0108 C.2       1 <0>        -0.1018
     14 C10         1.4286   -1.9922    0.1457 C.ar      1 <0>         0.0092
     15 C11         0.3179   -2.7696    0.4850 C.ar      1 <0>        -0.2234
     16 C12        -0.9221   -2.1745    0.6316 C.ar      1 <0>         0.1505
     17 C13        -1.0633   -0.8026    0.4474 C.ar      1 <0>         0.0317
     18 C14         0.0395   -0.0266    0.1040 C.ar      1 <0>         0.1513
     19 C15         1.2823   -0.6155   -0.0442 C.ar      1 <0>        -0.2235
     20 O4         -0.1037    1.3132   -0.0807 O.3       1 <0>        -0.3010
     21 C16         1.0712    2.0497   -0.4259 C.3       1 <0>         0.0234
     22 O5         -2.2832   -0.2195    0.5978 O.3       1 <0>        -0.3113
     23 C17        -3.1109   -0.1377   -0.5642 C.3       1 <0>         0.0355
     24 O6         -2.0035   -2.9303    0.9617 O.3       1 <0>        -0.2983
     25 C18        -1.7698   -4.3138    1.2324 C.3       1 <0>         0.0256
     26 H1         -3.4128   -5.9174   -3.9457 H         1 <0>         0.1148
     27 H2         -2.8907   -4.5882   -2.8833 H         1 <0>         0.0635
     28 H3         -2.0779   -4.8510   -4.4448 H         1 <0>         0.0641
     29 H4         -1.0312   -3.6678   -3.0552 H         1 <0>         0.1522
     30 H5          0.9282   -2.6208   -2.0040 H         1 <0>         0.1452
     31 H6          2.1668   -6.4553   -0.5260 H         1 <0>         0.1626
     32 H7          3.7948   -4.3706   -0.5364 H         1 <0>         0.1405
     33 H8          3.6395   -2.1022    0.3151 H         1 <0>         0.1402
     34 H9          0.4276   -3.8339    0.6321 H         1 <0>         0.1372
     35 H10         2.1386   -0.0120   -0.3068 H         1 <0>         0.1404
     36 H11         0.8179    3.1033   -0.5438 H         1 <0>         0.1048
     37 H12         1.8137    1.9408    0.3646 H         1 <0>         0.0597
     38 H13         1.4780    1.6669   -1.3619 H         1 <0>         0.0577
     39 H14        -4.0523    0.3474   -0.3063 H         1 <0>         0.0941
     40 H15        -2.6015    0.4431   -1.3331 H         1 <0>         0.0445
     41 H16        -3.3103   -1.1415   -0.9395 H         1 <0>         0.0429
     42 H17        -1.1310   -4.4094    2.1104 H         1 <0>         0.0609
     43 H18        -2.7205   -4.8133    1.4187 H         1 <0>         0.1060
     44 H19        -1.2795   -4.7741    0.3746 H         1 <0>         0.0482
@<TRIPOS>BOND
     1    1    2 1
     2    1   26 1
     3    1   27 1
     4    1   28 1
     5    2    3 1
     6    3    8 ar
     7    3    4 ar
     8    4    5 ar
     9    4   29 1
    10    5    6 ar
    11    5   30 1
    12    6    7 ar
    13    6   12 1
    14    7    8 ar
    15    7   31 1
    16    8    9 1
    17    9   10 2
    18    9   11 1
    19   12   13 2
    20   12   32 1
    21   13   14 1
    22   13   33 1
    23   14   19 ar
    24   14   15 ar
    25   15   16 ar
    26   15   34 1
    27   16   17 ar
    28   16   24 1
    29   17   18 ar
    30   17   22 1
    31   18   19 ar
    32   18   20 1
    33   19   35 1
    34   20   21 1
    35   21   36 1
    36   21   37 1
    37   21   38 1
    38   22   23 1
    39   23   39 1
    40   23   40 1
    41   23   41 1
    42   24   25 1
    43   25   42 1
    44   25   43 1
    45   25   44 1
@<TRIPOS>MOLECULE
ZINC13607837
   44    45     0     0     0
SMALL
USER_CHARGES
(E)-3-(3-fluoro-4-methoxy-phenyl)-1-(3,4,5-trimethoxyphenyl)prop-2-en-1-one
@<TRIPOS>ATOM
      1 C1         -3.6071    2.9976    0.0498 C.3       1 <0>         0.0230
      2 O1         -2.4223    3.7966    0.0432 O.3       1 <0>        -0.3050
      3 C2         -1.2349    3.1383    0.0293 C.ar      1 <0>         0.1160
      4 C3         -1.2135    1.7487    0.0173 C.ar      1 <0>        -0.1869
      5 C4         -0.0126    1.0758    0.0080 C.ar      1 <0>        -0.0541
      6 C5          1.1900    1.7932    0.0003 C.ar      1 <0>        -0.0983
      7 C6          1.1646    3.1933    0.0076 C.ar      1 <0>        -0.0927
      8 C7         -0.0429    3.8576    0.0222 C.ar      1 <0>         0.0673
      9 F1         -0.0699    5.2083    0.0293 F         1 <0>        -0.1277
     10 C8          2.4738    1.0795   -0.0157 C.2       1 <0>         0.0120
     11 C9          3.6336    1.7744   -0.0231 C.2       1 <0>        -0.2474
     12 C10         4.8732    1.0853   -0.0386 C.2       1 <0>         0.4285
     13 O2          4.8928   -0.1324   -0.0453 O.2       1 <0>        -0.4553
     14 C11         6.1401    1.8445   -0.0466 C.ar      1 <0>        -0.0875
     15 C12         6.1188    3.2416   -0.0448 C.ar      1 <0>        -0.1901
     16 C13         7.3059    3.9497   -0.0474 C.ar      1 <0>         0.1388
     17 C14         8.5223    3.2718   -0.0627 C.ar      1 <0>         0.0586
     18 C15         8.5462    1.8794   -0.0699 C.ar      1 <0>         0.1388
     19 C16         7.3619    1.1668   -0.0619 C.ar      1 <0>        -0.1767
     20 O3          9.7357    1.2204   -0.0852 O.3       1 <0>        -0.3001
     21 C17         9.6861   -0.2077   -0.0923 C.3       1 <0>         0.0220
     22 O4          9.6880    3.9703   -0.0701 O.3       1 <0>        -0.3125
     23 C18        10.2326    4.3101   -1.3468 C.3       1 <0>         0.0358
     24 O5          7.2859    5.3095   -0.0404 O.3       1 <0>        -0.2993
     25 C19         6.0033    5.9394   -0.0248 C.3       1 <0>         0.0209
     26 H1         -3.6290    2.3730   -0.8432 H         1 <0>         0.0614
     27 H2         -3.6130    2.3640    0.9367 H         1 <0>         0.0615
     28 H3         -4.4828    3.6465    0.0609 H         1 <0>         0.1074
     29 H4         -2.1411    1.1955    0.0190 H         1 <0>         0.1454
     30 H5          0.0021   -0.0041    0.0020 H         1 <0>         0.1419
     31 H6          2.0893    3.7513    0.0021 H         1 <0>         0.1479
     32 H7          2.4912   -0.0004   -0.0217 H         1 <0>         0.1428
     33 H8          3.6162    2.8543   -0.0171 H         1 <0>         0.1328
     34 H9          5.1757    3.7677   -0.0375 H         1 <0>         0.1435
     35 H10         7.3810    0.0869   -0.0671 H         1 <0>         0.1478
     36 H11        10.7004   -0.6065   -0.1045 H         1 <0>         0.1061
     37 H12         9.1688   -0.5578    0.8010 H         1 <0>         0.0605
     38 H13         9.1511   -0.5483   -0.9788 H         1 <0>         0.0593
     39 H14         9.5188    4.9258   -1.8941 H         1 <0>         0.0465
     40 H15        11.1608    4.8648   -1.2098 H         1 <0>         0.0957
     41 H16        10.4335    3.3990   -1.9103 H         1 <0>         0.0464
     42 H17         6.1302    7.0219   -0.0206 H         1 <0>         0.1066
     43 H18         5.4420    5.6428   -0.9109 H         1 <0>         0.0586
     44 H19         5.4593    5.6338    0.8690 H         1 <0>         0.0598
@<TRIPOS>BOND
     1    1    2 1
     2    1   26 1
     3    1   27 1
     4    1   28 1
     5    2    3 1
     6    3    8 ar
     7    3    4 ar
     8    4    5 ar
     9    4   29 1
    10    5    6 ar
    11    5   30 1
    12    6    7 ar
    13    6   10 1
    14    7    8 ar
    15    7   31 1
    16    8    9 1
    17   10   11 2
    18   10   32 1
    19   11   12 1
    20   11   33 1
    21   12   13 2
    22   12   14 1
    23   14   19 ar
    24   14   15 ar
    25   15   16 ar
    26   15   34 1
    27   16   17 ar
    28   16   24 1
    29   17   18 ar
    30   17   22 1
    31   18   19 ar
    32   18   20 1
    33   19   35 1
    34   20   21 1
    35   21   36 1
    36   21   37 1
    37   21   38 1
    38   22   23 1
    39   23   39 1
    40   23   40 1
    41   23   41 1
    42   24   25 1
    43   25   42 1
    44   25   43 1
    45   25   44 1
@<TRIPOS>MOLECULE
ZINC05503297
   32    34     0     0     0
SMALL
USER_CHARGES
2-(3-methoxyphenyl)-1H-quinolin-4-one
@<TRIPOS>ATOM
      1 C1          6.3105   -4.6199   -0.0810 C.3       1 <0>         0.0250
      2 O1          5.0157   -4.0155   -0.0659 O.3       1 <0>        -0.3126
      3 C2          4.9687   -2.6573   -0.0595 C.ar      1 <0>         0.1339
      4 C3          6.1468   -1.9221   -0.0677 C.ar      1 <0>        -0.1910
      5 C4          6.1053   -0.5403   -0.0604 C.ar      1 <0>        -0.0735
      6 C5          4.8925    0.1179   -0.0453 C.ar      1 <0>        -0.1424
      7 C6          3.7029   -0.6125   -0.0374 C.ar      1 <0>        -0.0378
      8 C7          3.7465   -2.0074   -0.0395 C.ar      1 <0>        -0.1170
      9 C8          2.4020    0.0888   -0.0208 C.2       1 <0>         0.2483
     10 C9          1.2557   -0.6488   -0.0134 C.2       1 <0>        -0.2989
     11 C10         0.0021   -0.0041    0.0020 C.2       1 <0>         0.4177
     12 O2         -1.0355   -0.6470    0.0081 O.2       1 <0>        -0.4937
     13 C11        -0.0179    1.4699    0.0101 C.ar      1 <0>        -0.1987
     14 C12        -1.2193    2.1785    0.0197 C.ar      1 <0>        -0.0289
     15 C13        -1.1997    3.5454    0.0321 C.ar      1 <0>        -0.1584
     16 C14         0.0057    4.2334    0.0247 C.ar      1 <0>        -0.0547
     17 C15         1.2035    3.5526    0.0096 C.ar      1 <0>        -0.1747
     18 C16         1.2060    2.1607    0.0021 C.ar      1 <0>         0.1961
     19 N1          2.3882    1.4529   -0.0138 N.pl3     1 <0>        -0.6089
     20 H1          3.2296    1.9355   -0.0199 H         1 <0>         0.4165
     21 H2          6.8484   -4.3040   -0.9749 H         1 <0>         0.0582
     22 H3          6.8657   -4.3118    0.8050 H         1 <0>         0.0582
     23 H4          6.2051   -5.7047   -0.0847 H         1 <0>         0.1048
     24 H5          7.0989   -2.4318   -0.0795 H         1 <0>         0.1353
     25 H6          7.0250    0.0259   -0.0661 H         1 <0>         0.1344
     26 H7          4.8637    1.1975   -0.0393 H         1 <0>         0.1239
     27 H8          2.8296   -2.5780   -0.0294 H         1 <0>         0.1459
     28 H9          1.3079   -1.7275   -0.0197 H         1 <0>         0.1545
     29 H10        -2.1610    1.6495    0.0212 H         1 <0>         0.1395
     30 H11        -2.1297    4.0944    0.0432 H         1 <0>         0.1318
     31 H12         0.0048    5.3133    0.0304 H         1 <0>         0.1336
     32 H13         2.1364    4.0966    0.0032 H         1 <0>         0.1334
@<TRIPOS>BOND
     1    1    2 1
     2    1   21 1
     3    1   22 1
     4    1   23 1
     5    2    3 1
     6    3    8 ar
     7    3    4 ar
     8    4    5 ar
     9    4   24 1
    10    5    6 ar
    11    5   25 1
    12    6    7 ar
    13    6   26 1
    14    7    8 ar
    15    7    9 1
    16    8   27 1
    17    9   19 1
    18    9   10 2
    19   10   11 1
    20   10   28 1
    21   11   12 2
    22   11   13 1
    23   13   18 ar
    24   13   14 ar
    25   14   15 ar
    26   14   29 1
    27   15   16 ar
    28   15   30 1
    29   16   17 ar
    30   16   31 1
    31   17   18 ar
    32   17   32 1
    33   18   19 1
    34   19   20 1
@<TRIPOS>MOLECULE
ZINC01587241
   51    53     0     0     0
SMALL
USER_CHARGES
N-(hydroxy-dimethoxy-methylsulfanyl-oxo-BLAHyl)acetamide
@<TRIPOS>ATOM
      1 C1         -3.1917    6.3531    2.5696 C.3       1 <0>        -0.1729
      2 C2         -3.1027    4.9456    2.0387 C.2       1 <0>         0.5145
      3 O1         -2.9920    4.0136    2.8069 O.2       1 <0>        -0.5383
      4 N1         -3.1460    4.7224    0.7102 N.am      1 <0>        -0.7294
      5 H1         -3.2345    5.4678    0.0958 H         1 <0>         0.4056
      6 C3         -3.0595    3.3540    0.1941 C.3       1 <0>         0.1691
      7 H2         -3.5504    2.6792    0.8953 H         1 <0>         0.1086
      8 C4         -3.7671    3.2837   -1.1562 C.3       1 <0>        -0.1166
      9 C5         -3.4049    2.0016   -1.9012 C.3       1 <0>        -0.0803
     10 C6         -3.4483    0.8334   -0.9501 C.ar      1 <0>        -0.0225
     11 C7         -4.5044   -0.0534   -0.9903 C.ar      1 <0>        -0.1946
     12 C8         -4.5318   -1.1418   -0.1280 C.ar      1 <0>         0.1291
     13 C9         -3.4983   -1.3451    0.7803 C.ar      1 <0>         0.0552
     14 C10        -2.4347   -0.4538    0.8299 C.ar      1 <0>         0.1315
     15 C11        -2.4149    0.6417   -0.0386 C.ar      1 <0>        -0.1047
     16 C12        -1.2772    1.6086    0.0176 C.2       1 <0>        -0.0157
     17 C13        -1.6009    2.9635    0.0711 C.2       1 <0>         0.0088
     18 C14        -0.7147    3.9756    0.0290 C.2       1 <0>        -0.1888
     19 C15         0.6473    4.0156   -0.0347 C.2       1 <0>         0.3998
     20 O2          1.1430    5.1319   -0.1119 O.2       1 <0>        -0.5001
     21 C16         1.5487    2.9529   -0.0229 C.2       1 <0>        -0.1456
     22 C17         1.2114    1.6311   -0.0007 C.2       1 <0>        -0.0896
     23 C18        -0.0126    1.0758    0.0080 C.2       1 <0>        -0.0478
     24 S1          3.2655    3.3489   -0.0384 S.3       1 <0>        -0.0157
     25 C19         3.9726    1.6829   -0.0168 C.3       1 <0>        -0.1842
     26 O3         -1.4217   -0.6444    1.7155 O.3       1 <0>        -0.3209
     27 C20        -1.5624   -0.0392    3.0023 C.3       1 <0>         0.0343
     28 O4         -3.5297   -2.4160    1.6196 O.3       1 <0>        -0.4711
     29 O5         -5.5740   -2.0133   -0.1723 O.3       1 <0>        -0.3022
     30 C21        -6.6023   -1.7468   -1.1281 C.3       1 <0>         0.0227
     31 H3         -3.2864    7.0502    1.7369 H         1 <0>         0.0783
     32 H4         -4.0627    6.4422    3.2188 H         1 <0>         0.0975
     33 H5         -2.2904    6.5851    3.1369 H         1 <0>         0.0981
     34 H6         -3.4758    4.1430   -1.7603 H         1 <0>         0.0837
     35 H7         -4.8446    3.3108   -0.9935 H         1 <0>         0.0843
     36 H8         -2.4013    2.0943   -2.3164 H         1 <0>         0.0852
     37 H9         -4.1176    1.8380   -2.7095 H         1 <0>         0.0901
     38 H10        -5.3104    0.0989   -1.6928 H         1 <0>         0.1424
     39 H11        -1.1745    4.9526    0.0494 H         1 <0>         0.1342
     40 H12         2.0393    0.9377    0.0110 H         1 <0>         0.1339
     41 H13         0.0021   -0.0041    0.0020 H         1 <0>         0.1301
     42 H14         5.0605    1.7498   -0.0238 H         1 <0>         0.1139
     43 H15         3.6464    1.1614    0.8831 H         1 <0>         0.0912
     44 H16         3.6366    1.1342   -0.8966 H         1 <0>         0.0912
     45 H17        -1.6520    1.0411    2.8879 H         1 <0>         0.0544
     46 H18        -2.4557   -0.4281    3.4910 H         1 <0>         0.0470
     47 H19        -0.6869   -0.2689    3.6096 H         1 <0>         0.0991
     48 H20        -3.9714   -2.2425    2.4622 H         1 <0>         0.3844
     49 H21        -7.0444   -0.7717   -0.9237 H         1 <0>         0.0584
     50 H22        -6.1756   -1.7493   -2.1311 H         1 <0>         0.0595
     51 H23        -7.3713   -2.5162   -1.0585 H         1 <0>         0.1049
@<TRIPOS>BOND
     1    1    2 1
     2    1   31 1
     3    1   32 1
     4    1   33 1
     5    2    3 2
     6    2    4 am
     7    4    5 1
     8    4    6 1
     9    6    7 1
    10    6   17 1
    11    6    8 1
    12    8    9 1
    13    8   34 1
    14    8   35 1
    15    9   10 1
    16    9   36 1
    17    9   37 1
    18   10   15 ar
    19   10   11 ar
    20   11   12 ar
    21   11   38 1
    22   12   13 ar
    23   12   29 1
    24   13   14 ar
    25   13   28 1
    26   14   15 ar
    27   14   26 1
    28   15   16 1
    29   16   23 2
    30   16   17 1
    31   17   18 2
    32   18   19 1
    33   18   39 1
    34   19   20 2
    35   19   21 1
    36   21   22 2
    37   21   24 1
    38   22   23 1
    39   22   40 1
    40   23   41 1
    41   24   25 1
    42   25   42 1
    43   25   43 1
    44   25   44 1
    45   26   27 1
    46   27   45 1
    47   27   46 1
    48   27   47 1
    49   28   48 1
    50   29   30 1
    51   30   49 1
    52   30   50 1
    53   30   51 1
@<TRIPOS>MOLECULE
ZINC01584949
   51    53     0     0     0
SMALL
USER_CHARGES
N-(hydroxy-dimethoxy-methylsulfanyl-oxo-BLAHyl)acetamide
@<TRIPOS>ATOM
      1 C1          4.7717    2.1976    5.2396 C.3       1 <0>        -0.1768
      2 C2          3.8204    2.1932    4.0708 C.2       1 <0>         0.5142
      3 O1          2.9335    1.3678    4.0139 O.2       1 <0>        -0.5372
      4 N1          3.9551    3.1064    3.0888 N.am      1 <0>        -0.7307
      5 H1          4.6643    3.7665    3.1343 H         1 <0>         0.4061
      6 C3          3.0302    3.1021    1.9527 C.3       1 <0>         0.1694
      7 H2          2.0458    2.7870    2.2986 H         1 <0>         0.1075
      8 C4          2.9307    4.5058    1.3913 C.3       1 <0>        -0.1183
      9 C5          2.2790    4.4999    0.0110 C.3       1 <0>        -0.0789
     10 C6          1.0752    3.5932    0.0220 C.ar      1 <0>        -0.0462
     11 C7         -0.1956    4.1292    0.0552 C.ar      1 <0>        -0.1302
     12 C8         -1.3037    3.2918    0.0491 C.ar      1 <0>         0.1115
     13 C9         -1.1410    1.9113    0.0052 C.ar      1 <0>         0.0541
     14 C10         0.1354    1.3647   -0.0162 C.ar      1 <0>         0.1156
     15 C11         1.2466    2.2132   -0.0095 C.ar      1 <0>        -0.0785
     16 C12         2.6217    1.6298   -0.0259 C.2       1 <0>        -0.0241
     17 C13         3.5277    2.1173    0.9143 C.2       1 <0>         0.0101
     18 C14         4.8264    1.7729    0.9936 C.2       1 <0>        -0.1887
     19 C15         5.6010    0.9014    0.2855 C.2       1 <0>         0.3999
     20 O2          6.7860    0.8750    0.5901 O.2       1 <0>        -0.4984
     21 C16         5.2200    0.0369   -0.7391 C.2       1 <0>        -0.1424
     22 C17         3.9695   -0.0466   -1.2781 C.2       1 <0>        -0.0926
     23 C18         2.8693    0.6582   -0.9632 C.2       1 <0>        -0.0437
     24 S1          6.4552   -1.0364   -1.3925 S.3       1 <0>        -0.0129
     25 C19         5.4820   -1.9112   -2.6429 C.3       1 <0>        -0.1848
     26 O3          0.3030    0.0164   -0.0491 O.3       1 <0>        -0.3211
     27 C20         0.5212   -0.6408    1.2008 C.3       1 <0>         0.0324
     28 O4         -2.2313    1.0968   -0.0113 O.3       1 <0>        -0.3198
     29 C21        -2.8220    0.7779    1.2502 C.3       1 <0>         0.0351
     30 O5         -2.5539    3.8245    0.0801 O.3       1 <0>        -0.4885
     31 H3          4.7054    3.1539    5.7584 H         1 <0>         0.0910
     32 H4          4.5080    1.3929    5.9258 H         1 <0>         0.0948
     33 H5          5.7899    2.0492    4.8798 H         1 <0>         0.0921
     34 H6          2.3338    5.1195    2.0660 H         1 <0>         0.0859
     35 H7          3.9311    4.9315    1.3127 H         1 <0>         0.0839
     36 H8          1.9684    5.5122   -0.2478 H         1 <0>         0.0918
     37 H9          2.9964    4.1415   -0.7273 H         1 <0>         0.0845
     38 H10        -0.3289    5.2005    0.0864 H         1 <0>         0.1439
     39 H11         5.3633    2.2910    1.7744 H         1 <0>         0.1349
     40 H12         3.8473   -0.7772   -2.0640 H         1 <0>         0.1347
     41 H13         2.0094    0.4112   -1.5681 H         1 <0>         0.1306
     42 H14         5.0905   -1.1949   -3.3652 H         1 <0>         0.0916
     43 H15         6.1156   -2.6348   -3.1557 H         1 <0>         0.1144
     44 H16         4.6538   -2.4307   -2.1609 H         1 <0>         0.0914
     45 H17        -0.3682   -0.5426    1.8231 H         1 <0>         0.0476
     46 H18         0.7269   -1.6967    1.0251 H         1 <0>         0.0985
     47 H19         1.3715   -0.1846    1.7077 H         1 <0>         0.0543
     48 H20        -2.1180    0.1949    1.8440 H         1 <0>         0.0437
     49 H21        -3.0683    1.6985    1.7791 H         1 <0>         0.0529
     50 H22        -3.7302    0.1969    1.0896 H         1 <0>         0.0975
     51 H23        -2.9279    4.0013   -0.7939 H         1 <0>         0.3980
@<TRIPOS>BOND
     1    1    2 1
     2    1   31 1
     3    1   32 1
     4    1   33 1
     5    2    3 2
     6    2    4 am
     7    4    5 1
     8    4    6 1
     9    6    7 1
    10    6   17 1
    11    6    8 1
    12    8    9 1
    13    8   34 1
    14    8   35 1
    15    9   10 1
    16    9   36 1
    17    9   37 1
    18   10   15 ar
    19   10   11 ar
    20   11   12 ar
    21   11   38 1
    22   12   13 ar
    23   12   30 1
    24   13   14 ar
    25   13   28 1
    26   14   15 ar
    27   14   26 1
    28   15   16 1
    29   16   23 2
    30   16   17 1
    31   17   18 2
    32   18   19 1
    33   18   39 1
    34   19   20 2
    35   19   21 1
    36   21   22 2
    37   21   24 1
    38   22   23 1
    39   22   40 1
    40   23   41 1
    41   24   25 1
    42   25   42 1
    43   25   43 1
    44   25   44 1
    45   26   27 1
    46   27   45 1
    47   27   46 1
    48   27   47 1
    49   28   29 1
    50   29   48 1
    51   29   49 1
    52   29   50 1
    53   30   51 1
@<TRIPOS>MOLECULE
ZINC05640267
   38    40     0     0     0
SMALL
USER_CHARGES

@<TRIPOS>ATOM
      1 C1         -1.8135   -0.3278    0.1495 C.3       1 <0>         0.0215
      2 O1         -0.4517    0.0706    0.3193 O.3       1 <0>        -0.3020
      3 C2          0.2573   -0.5559    1.2945 C.ar      1 <0>         0.1310
      4 C3         -0.3466   -1.5381    2.0670 C.ar      1 <0>        -0.2028
      5 C4          0.3679   -2.1769    3.0576 C.ar      1 <0>        -0.0439
      6 C5          1.7041   -1.8361    3.2856 C.ar      1 <0>        -0.0926
      7 C6          2.3122   -0.8472    2.5071 C.ar      1 <0>        -0.0448
      8 C7          1.5908   -0.2146    1.5127 C.ar      1 <0>         0.0714
      9 O2          2.1807    0.7447    0.7503 O.3       1 <0>        -0.4805
     10 C8          2.4703   -2.5178    4.3451 C.2       1 <0>         0.1845
     11 C9          3.2058   -1.7651    5.2106 C.2       1 <0>        -0.0827
     12 C10         3.9485   -2.4063    6.2357 C.2       1 <0>         0.4073
     13 O3          4.6184   -1.7648    7.0293 O.2       1 <0>        -0.4404
     14 C11         3.8793   -3.8746    6.3049 C.ar      1 <0>        -0.2638
     15 C12         4.5803   -4.5898    7.2850 C.ar      1 <0>         0.2214
     16 C13         4.4893   -5.9686    7.3171 C.ar      1 <0>        -0.2050
     17 C14         3.7074   -6.6394    6.3824 C.ar      1 <0>         0.1952
     18 C15         3.0117   -5.9387    5.4100 C.ar      1 <0>        -0.1821
     19 C16         3.0895   -4.5550    5.3618 C.ar      1 <0>         0.1815
     20 O4          2.4129   -3.8583    4.4248 O.3       1 <0>        -0.2038
     21 O5          3.6255   -7.9939    6.4229 O.3       1 <0>        -0.4866
     22 O6          5.3433   -3.9336    8.1955 O.3       1 <0>        -0.4716
     23 O7          3.2282   -0.4095    5.0926 O.3       1 <0>        -0.2959
     24 C17         2.6493    0.3442    6.1597 C.3       1 <0>         0.0267
     25 H1         -2.3629   -0.1467    1.0733 H         1 <0>         0.0590
     26 H2         -2.2626    0.2487   -0.6593 H         1 <0>         0.1054
     27 H3         -1.8537   -1.3892   -0.0951 H         1 <0>         0.0598
     28 H4         -1.3790   -1.8023    1.8918 H         1 <0>         0.1419
     29 H5         -0.1047   -2.9403    3.6577 H         1 <0>         0.1368
     30 H6          3.3444   -0.5807    2.6800 H         1 <0>         0.1498
     31 H7          2.0986    1.6386    1.1099 H         1 <0>         0.3903
     32 H8          5.0267   -6.5265    8.0696 H         1 <0>         0.1511
     33 H9          2.4085   -6.4707    4.6892 H         1 <0>         0.1550
     34 H10         2.9055   -8.3280    6.9752 H         1 <0>         0.4041
     35 H11         4.8683   -3.6845    9.0002 H         1 <0>         0.4029
     36 H12         2.6425    1.4017    5.8956 H         1 <0>         0.0982
     37 H13         1.6273    0.0059    6.3308 H         1 <0>         0.0447
     38 H14         3.2364    0.2000    7.0667 H         1 <0>         0.0589
@<TRIPOS>BOND
     1    1    2 1
     2    1   25 1
     3    1   26 1
     4    1   27 1
     5    2    3 1
     6    3    8 ar
     7    3    4 ar
     8    4    5 ar
     9    4   28 1
    10    5    6 ar
    11    5   29 1
    12    6    7 ar
    13    6   10 1
    14    7    8 ar
    15    7   30 1
    16    8    9 1
    17    9   31 1
    18   10   20 1
    19   10   11 2
    20   11   12 1
    21   11   23 1
    22   12   13 2
    23   12   14 1
    24   14   19 ar
    25   14   15 ar
    26   15   16 ar
    27   15   22 1
    28   16   17 ar
    29   16   32 1
    30   17   18 ar
    31   17   21 1
    32   18   19 ar
    33   18   33 1
    34   19   20 1
    35   21   34 1
    36   22   35 1
    37   23   24 1
    38   24   36 1
    39   24   37 1
    40   24   38 1
@<TRIPOS>MOLECULE
ZINC00007280
   44    45     0     0     0
SMALL
USER_CHARGES
2-methoxy-5-[2-(3,4,5-trimethoxyphenyl)vinyl]aniline
@<TRIPOS>ATOM
      1 C1         -2.5809   -5.3225   -3.5973 C.3       1 <0>         0.0309
      2 O1         -1.6526   -6.2060   -2.9651 O.3       1 <0>        -0.3218
      3 C2         -0.5627   -5.6410   -2.3806 C.ar      1 <0>         0.0563
      4 C3         -0.3436   -4.2769   -2.4990 C.ar      1 <0>        -0.1638
      5 C4          0.7602   -3.6980   -1.9082 C.ar      1 <0>        -0.1070
      6 C5          1.6621   -4.4864   -1.1881 C.ar      1 <0>        -0.0542
      7 C6          1.4448   -5.8621   -1.0727 C.ar      1 <0>        -0.1587
      8 C7          0.3318   -6.4348   -1.6629 C.ar      1 <0>         0.1913
      9 N1          0.1074   -7.8115   -1.5455 N.pl3     1 <0>        -0.8755
     10 C8          2.8422   -3.8696   -0.5573 C.2       1 <0>        -0.0885
     11 C9          2.7483   -2.6476   -0.0080 C.2       1 <0>        -0.1182
     12 C10         1.4293   -2.0102    0.1500 C.ar      1 <0>         0.0184
     13 C11         0.3145   -2.7822    0.4882 C.ar      1 <0>        -0.2068
     14 C12        -0.9222   -2.1807    0.6362 C.ar      1 <0>         0.1481
     15 C13        -1.0561   -0.8077    0.4540 C.ar      1 <0>         0.0270
     16 C14         0.0508   -0.0370    0.1121 C.ar      1 <0>         0.1466
     17 C15         1.2904   -0.6323   -0.0375 C.ar      1 <0>        -0.2270
     18 O2         -0.0851    1.3038   -0.0698 O.3       1 <0>        -0.3035
     19 C16         1.0937    2.0347   -0.4136 C.3       1 <0>         0.0247
     20 O3         -2.2729   -0.2184    0.6054 O.3       1 <0>        -0.3126
     21 C17        -3.1001   -0.1302   -0.5565 C.3       1 <0>         0.0360
     22 O4         -2.0076   -2.9312    0.9653 O.3       1 <0>        -0.3016
     23 C18        -1.7812   -4.3165    1.2335 C.3       1 <0>         0.0258
     24 H1         -2.9093   -4.5682   -2.8823 H         1 <0>         0.0543
     25 H2         -2.0989   -4.8347   -4.4445 H         1 <0>         0.0536
     26 H3         -3.4427   -5.8908   -3.9474 H         1 <0>         0.0988
     27 H4         -1.0389   -3.6661   -3.0556 H         1 <0>         0.1260
     28 H5          0.9279   -2.6352   -2.0025 H         1 <0>         0.1227
     29 H6          2.1412   -6.4758   -0.5206 H         1 <0>         0.1296
     30 H7         -0.6702   -8.2135   -1.9632 H         1 <0>         0.4031
     31 H8          0.7296   -8.3634   -1.0464 H         1 <0>         0.3980
     32 H9          3.7827   -4.4001   -0.5367 H         1 <0>         0.1302
     33 H10         3.6397   -2.1321    0.3179 H         1 <0>         0.1322
     34 H11         0.4185   -3.8473    0.6334 H         1 <0>         0.1397
     35 H12         2.1499   -0.0330   -0.2992 H         1 <0>         0.1364
     36 H13         0.8462    3.0899   -0.5292 H         1 <0>         0.1026
     37 H14         1.8357    1.9201    0.3766 H         1 <0>         0.0581
     38 H15         1.4984    1.6517   -1.3504 H         1 <0>         0.0566
     39 H16        -2.5875    0.4493   -1.3243 H         1 <0>         0.0432
     40 H17        -3.3049   -1.1321   -0.9336 H         1 <0>         0.0426
     41 H18        -4.0389    0.3596   -0.2978 H         1 <0>         0.0916
     42 H19        -2.7348   -4.8115    1.4171 H         1 <0>         0.1005
     43 H20        -1.2918   -4.7774    0.3756 H         1 <0>         0.0574
     44 H21        -1.1444   -4.4170    2.1124 H         1 <0>         0.0565
@<TRIPOS>BOND
     1    1    2 1
     2    1   24 1
     3    1   25 1
     4    1   26 1
     5    2    3 1
     6    3    8 ar
     7    3    4 ar
     8    4    5 ar
     9    4   27 1
    10    5    6 ar
    11    5   28 1
    12    6    7 ar
    13    6   10 1
    14    7    8 ar
    15    7   29 1
    16    8    9 1
    17    9   30 1
    18    9   31 1
    19   10   11 2
    20   10   32 1
    21   11   12 1
    22   11   33 1
    23   12   17 ar
    24   12   13 ar
    25   13   14 ar
    26   13   34 1
    27   14   15 ar
    28   14   22 1
    29   15   16 ar
    30   15   20 1
    31   16   17 ar
    32   16   18 1
    33   17   35 1
    34   18   19 1
    35   19   36 1
    36   19   37 1
    37   19   38 1
    38   20   21 1
    39   21   39 1
    40   21   40 1
    41   21   41 1
    42   22   23 1
    43   23   42 1
    44   23   43 1
    45   23   44 1
@<TRIPOS>MOLECULE
ZINC28562954
   53    56     0     0     0
SMALL
USER_CHARGES
N-(3,5-dimethoxyphenyl)-3-[5-[(3-methoxyphenyl)amino]-2H-1,2,4-triazol-3-yl]pyridin-2-amine
@<TRIPOS>ATOM
      1 C1         -9.9003    0.1974   -1.8241 C.3       1 <0>         0.0222
      2 O1         -8.4888    0.4196   -1.8030 O.3       1 <0>        -0.3148
      3 C2         -7.7270   -0.5115   -1.1709 C.ar      1 <0>         0.1709
      4 C3         -8.3269   -1.6171   -0.5835 C.ar      1 <0>        -0.2341
      5 C4         -7.5537   -2.5653    0.0587 C.ar      1 <0>        -0.0364
      6 C5         -6.1811   -2.4190    0.1143 C.ar      1 <0>        -0.1884
      7 C6         -5.5756   -1.3117   -0.4668 C.ar      1 <0>         0.2184
      8 C7         -6.3511   -0.3582   -1.1129 C.ar      1 <0>        -0.2299
      9 N1         -4.1878   -1.1607   -0.4061 N.pl3     1 <0>        -0.6524
     10 C8         -3.6246    0.1168   -0.3896 C.2       1 <0>         0.5479
     11 N2         -2.3191    0.3883   -0.4414 N.2       1 <0>        -0.5869
     12 C9         -2.1348    1.6936   -0.4020 C.2       1 <0>         0.3142
     13 N3         -3.3497    2.2829   -0.3237 N.2       1 <0>        -0.3381
     14 H1         -5.3679    1.4767   -0.2665 H         1 <0>         0.4784
     15 N4         -4.2943    1.2438   -0.3206 N.pl3     1 <0>        -0.4821
     16 C10        -0.8315    2.3893   -0.4372 C.ar      1 <0>        -0.1319
     17 C11        -0.7557    3.7685   -0.2255 C.ar      1 <0>         0.0165
     18 C12         0.4887    4.3745   -0.2746 C.ar      1 <0>        -0.2274
     19 C13         1.6104    3.6057   -0.5234 C.ar      1 <0>         0.1793
     20 N5          1.5172    2.3038   -0.7152 N.ar      1 <0>        -0.5279
     21 C14         0.3528    1.6758   -0.6787 C.ar      1 <0>         0.4349
     22 N6          0.3019    0.3050   -0.8860 N.pl3     1 <0>        -0.6570
     23 C15         1.4612   -0.3922   -1.2367 C.ar      1 <0>         0.2456
     24 C16         2.4302    0.2206   -2.0202 C.ar      1 <0>        -0.1912
     25 C17         3.5827   -0.4696   -2.3624 C.ar      1 <0>         0.1836
     26 C18         3.7627   -1.7759   -1.9325 C.ar      1 <0>        -0.3213
     27 C19         2.7926   -2.3909   -1.1550 C.ar      1 <0>         0.1844
     28 C20         1.6422   -1.7000   -0.8067 C.ar      1 <0>        -0.2240
     29 O2          2.9700   -3.6708   -0.7342 O.3       1 <0>        -0.3142
     30 C21         4.1786   -4.3224   -1.1303 C.3       1 <0>         0.0246
     31 O3          4.5339    0.1319   -3.1241 O.3       1 <0>        -0.3115
     32 C22         5.6931   -0.6402   -3.4438 C.3       1 <0>         0.0244
     33 H2        -10.3929    1.0201   -2.3631 H         1 <0>         0.1058
     34 H3        -10.2803    0.1553   -0.7927 H         1 <0>         0.0606
     35 H4        -10.1141   -0.7542   -2.3328 H         1 <0>         0.0605
     36 H5         -9.3993   -1.7364   -0.6289 H         1 <0>         0.1335
     37 H6         -8.0231   -3.4244    0.5148 H         1 <0>         0.1350
     38 H7         -5.5787   -3.1637    0.6133 H         1 <0>         0.1343
     39 H8         -5.8827    0.5014   -1.5691 H         1 <0>         0.1331
     40 H9         -3.5390   -2.0483   -0.3713 H         1 <0>         0.4643
     41 H10        -1.5723    4.3172   -0.0464 H         1 <0>         0.1292
     42 H11         0.5706    5.3608   -0.1310 H         1 <0>         0.1281
     43 H12         2.5040    4.0533   -0.5571 H         1 <0>         0.1464
     44 H13        -0.6510   -0.2331   -0.7743 H         1 <0>         0.4602
     45 H14         2.2880    1.2361   -2.3591 H         1 <0>         0.1444
     46 H15         4.6586   -2.3148   -2.2035 H         1 <0>         0.1317
     47 H16         0.8873   -2.1788   -0.2007 H         1 <0>         0.1309
     48 H17         4.1937   -5.3449   -0.7250 H         1 <0>         0.1021
     49 H18         5.0416   -3.7614   -0.7424 H         1 <0>         0.0560
     50 H19         4.2307   -4.3623   -2.2283 H         1 <0>         0.0558
     51 H20         6.3766   -0.0375   -4.0600 H         1 <0>         0.1020
     52 H21         5.3924   -1.5391   -4.0019 H         1 <0>         0.0548
     53 H22         6.2026   -0.9382   -2.5156 H         1 <0>         0.0555
@<TRIPOS>BOND
     1    1    2 1
     2    1   33 1
     3    1   34 1
     4    1   35 1
     5    2    3 1
     6    3    8 ar
     7    3    4 ar
     8    4    5 ar
     9    4   36 1
    10    5    6 ar
    11    5   37 1
    12    6    7 ar
    13    6   38 1
    14    7    8 ar
    15    7    9 1
    16    8   39 1
    17    9   10 1
    18    9   40 1
    19   10   11 2
    20   10   15 1
    21   11   12 1
    22   12   16 1
    23   12   13 2
    24   13   15 1
    25   14   15 1
    26   16   21 ar
    27   16   17 ar
    28   17   18 ar
    29   17   41 1
    30   18   19 ar
    31   18   42 1
    32   19   20 ar
    33   19   43 1
    34   20   21 ar
    35   21   22 1
    36   22   23 1
    37   22   44 1
    38   23   28 ar
    39   23   24 ar
    40   24   25 ar
    41   24   45 1
    42   25   26 ar
    43   25   31 1
    44   26   27 ar
    45   26   46 1
    46   27   28 ar
    47   27   29 1
    48   28   47 1
    49   29   30 1
    50   30   48 1
    51   30   49 1
    52   30   50 1
    53   31   32 1
    54   32   51 1
    55   32   52 1
    56   32   53 1
@<TRIPOS>MOLECULE
ZINC00968516
   30    32     0     0     0
SMALL
USER_CHARGES
(2R)-2-phenyl-2,3-dihydro-1H-quinolin-4-one
@<TRIPOS>ATOM
      1 C1          3.6045    2.5865    4.6038 C.ar      1 <0>        -0.1147
      2 C2          4.7609    3.0000    3.9692 C.ar      1 <0>        -0.1199
      3 C3          4.7601    3.2178    2.6041 C.ar      1 <0>        -0.1076
      4 C4          3.6029    3.0222    1.8737 C.ar      1 <0>        -0.1145
      5 C5          2.4452    2.6138    2.5091 C.ar      1 <0>        -0.1165
      6 C6          2.4475    2.3905    3.8733 C.ar      1 <0>        -0.1170
      7 C7          3.6019    3.2601    0.3856 C.3       1 <0>         0.1996
      8 H1          4.4463    3.8947    0.1166 H         1 <0>         0.1114
      9 C8          3.7111    1.9182   -0.3529 C.3       1 <0>        -0.1666
     10 C9          2.4812    1.1004   -0.0114 C.2       1 <0>         0.4075
     11 O1          2.5632   -0.0830    0.2431 O.2       1 <0>        -0.4511
     12 C10         1.1853    1.7949    0.0004 C.ar      1 <0>        -0.2475
     13 C11        -0.0126    1.0758    0.0080 C.ar      1 <0>        -0.0194
     14 C12        -1.2126    1.7526    0.0173 C.ar      1 <0>        -0.1853
     15 C13        -1.2356    3.1393    0.0309 C.ar      1 <0>        -0.0405
     16 C14        -0.0606    3.8629    0.0226 C.ar      1 <0>        -0.2040
     17 C15         1.1604    3.2013    0.0061 C.ar      1 <0>         0.2614
     18 N1          2.3489    3.9162   -0.0068 N.pl3     1 <0>        -0.7344
     19 H2          3.6052    2.4163    5.6703 H         1 <0>         0.1230
     20 H3          5.6649    3.1531    4.5400 H         1 <0>         0.1246
     21 H4          5.6635    3.5412    2.1084 H         1 <0>         0.1245
     22 H5          1.5400    2.4652    1.9391 H         1 <0>         0.1336
     23 H6          1.5441    2.0671    4.3691 H         1 <0>         0.1220
     24 H7          3.7590    2.0829   -1.3381 H         1 <0>         0.0993
     25 H8          4.6081    1.3904   -0.0289 H         1 <0>         0.1055
     26 H9          0.0021   -0.0041    0.0020 H         1 <0>         0.1324
     27 H10        -2.1406    1.2001    0.0182 H         1 <0>         0.1273
     28 H11        -2.1827    3.6581    0.0433 H         1 <0>         0.1280
     29 H12        -0.0904    4.9425    0.0292 H         1 <0>         0.1290
     30 H13         2.3521    4.8484   -0.2750 H         1 <0>         0.4099
@<TRIPOS>BOND
     1    1    6 ar
     2    1    2 ar
     3    1   19 1
     4    2    3 ar
     5    2   20 1
     6    3    4 ar
     7    3   21 1
     8    4    5 ar
     9    4    7 1
    10    5    6 ar
    11    5   22 1
    12    6   23 1
    13    7    8 1
    14    7   18 1
    15    7    9 1
    16    9   10 1
    17    9   24 1
    18    9   25 1
    19   10   11 2
    20   10   12 1
    21   12   17 ar
    22   12   13 ar
    23   13   14 ar
    24   13   26 1
    25   14   15 ar
    26   14   27 1
    27   15   16 ar
    28   15   28 1
    29   16   17 ar
    30   16   29 1
    31   17   18 1
    32   18   30 1
@<TRIPOS>MOLECULE
ZINC00968517
   30    32     0     0     0
SMALL
USER_CHARGES
(2S)-2-phenyl-2,3-dihydro-1H-quinolin-4-one
@<TRIPOS>ATOM
      1 C1         -1.7447    5.5764    4.6658 C.ar      1 <0>        -0.1147
      2 C2         -2.0181    6.7806    4.0446 C.ar      1 <0>        -0.1198
      3 C3         -1.8543    6.9061    2.6777 C.ar      1 <0>        -0.1077
      4 C4         -1.4171    5.8273    1.9321 C.ar      1 <0>        -0.1145
      5 C5         -1.1488    4.6216    2.5525 C.ar      1 <0>        -0.1165
      6 C6         -1.3075    4.4976    3.9201 C.ar      1 <0>        -0.1170
      7 C7         -1.2390    5.9640    0.4419 C.3       1 <0>         0.1996
      8 H1         -1.1450    7.0180    0.1804 H         1 <0>         0.1115
      9 C8         -2.4538    5.3615   -0.2789 C.3       1 <0>        -0.1668
     10 C9         -2.5007    3.8825    0.0504 C.2       1 <0>         0.4076
     11 O1         -3.5469    3.3310    0.3208 O.2       1 <0>        -0.4510
     12 C10        -1.2309    3.1415    0.0303 C.ar      1 <0>        -0.2474
     13 C11        -1.2171    1.7445    0.0173 C.ar      1 <0>        -0.0193
     14 C12        -0.0126    1.0758    0.0080 C.ar      1 <0>        -0.1854
     15 C13         1.1813    1.7817    0.0003 C.ar      1 <0>        -0.0406
     16 C14         1.1833    3.1617    0.0064 C.ar      1 <0>        -0.2041
     17 C15        -0.0194    3.8562    0.0199 C.ar      1 <0>         0.2613
     18 N1         -0.0321    5.2431    0.0200 N.pl3     1 <0>        -0.7342
     19 H2         -1.8729    5.4782    5.7336 H         1 <0>         0.1230
     20 H3         -2.3600    7.6234    4.6271 H         1 <0>         0.1246
     21 H4         -2.0683    7.8469    2.1923 H         1 <0>         0.1245
     22 H5         -0.8114    3.7775    1.9693 H         1 <0>         0.1335
     23 H6         -1.0943    3.5566    4.4054 H         1 <0>         0.1220
     24 H7         -2.3576    5.4975   -1.2649 H         1 <0>         0.0992
     25 H8         -3.3670    5.8459    0.0668 H         1 <0>         0.1055
     26 H9         -2.1451    1.1920    0.0186 H         1 <0>         0.1324
     27 H10         0.0021   -0.0041    0.0020 H         1 <0>         0.1274
     28 H11         2.1190    1.2460   -0.0108 H         1 <0>         0.1280
     29 H12         2.1189    3.7010    0.0010 H         1 <0>         0.1290
     30 H13         0.7558    5.7360   -0.2580 H         1 <0>         0.4100
@<TRIPOS>BOND
     1    1    6 ar
     2    1    2 ar
     3    1   19 1
     4    2    3 ar
     5    2   20 1
     6    3    4 ar
     7    3   21 1
     8    4    5 ar
     9    4    7 1
    10    5    6 ar
    11    5   22 1
    12    6   23 1
    13    7    8 1
    14    7   18 1
    15    7    9 1
    16    9   10 1
    17    9   24 1
    18    9   25 1
    19   10   11 2
    20   10   12 1
    21   12   17 ar
    22   12   13 ar
    23   13   14 ar
    24   13   26 1
    25   14   15 ar
    26   14   27 1
    27   15   16 ar
    28   15   28 1
    29   16   17 ar
    30   16   29 1
    31   17   18 1
    32   18   30 1
@<TRIPOS>MOLECULE
ZINC00005900
   42    43     0     0     0
SMALL
USER_CHARGES
1,2,3-trimethoxy-5-[2-(4-methoxyphenyl)vinyl]benzene
@<TRIPOS>ATOM
      1 C1          0.5846    7.8364    6.0644 C.3       1 <0>         0.0260
      2 O1          0.3823    8.8514    5.0791 O.3       1 <0>        -0.3160
      3 C2          0.4408    8.4676    3.7771 C.ar      1 <0>         0.1339
      4 C3          0.1487    9.3810    2.7723 C.ar      1 <0>        -0.1576
      5 C4          0.2071    8.9965    1.4503 C.ar      1 <0>        -0.0689
      6 C5          0.5607    7.6848    1.1212 C.ar      1 <0>        -0.1071
      7 C6          0.8478    6.7676    2.1362 C.ar      1 <0>        -0.0477
      8 C7          0.7922    7.1630    3.4551 C.ar      1 <0>        -0.2109
      9 C8          0.6247    7.2687   -0.2908 C.2       1 <0>        -0.0862
     10 C9          0.2185    6.0393   -0.6476 C.2       1 <0>        -0.1215
     11 C10        -0.4762    5.1809    0.3278 C.ar      1 <0>         0.0180
     12 C11        -1.3731    5.7422    1.2408 C.ar      1 <0>        -0.2131
     13 C12        -2.0240    4.9335    2.1549 C.ar      1 <0>         0.1492
     14 C13        -1.7909    3.5617    2.1623 C.ar      1 <0>         0.0269
     15 C14        -0.8942    3.0005    1.2584 C.ar      1 <0>         0.1481
     16 C15        -0.2400    3.8036    0.3417 C.ar      1 <0>        -0.2276
     17 O2         -0.6649    1.6600    1.2726 O.3       1 <0>        -0.3029
     18 C16         0.2633    1.1504    0.3131 C.3       1 <0>         0.0245
     19 O3         -2.4369    2.7683    3.0590 O.3       1 <0>        -0.3122
     20 C17        -1.7977    2.5608    4.3202 C.3       1 <0>         0.0358
     21 O4         -2.8974    5.4789    3.0434 O.3       1 <0>        -0.3013
     22 C18        -3.1634    6.8772    2.9166 C.3       1 <0>         0.0247
     23 H1          0.4271    8.2574    7.0574 H         1 <0>         0.1019
     24 H2         -0.1218    7.0230    5.8984 H         1 <0>         0.0566
     25 H3          1.6027    7.4545    5.9889 H         1 <0>         0.0560
     26 H4         -0.1244   10.3942    3.0275 H         1 <0>         0.1326
     27 H5         -0.0202    9.7075    0.6697 H         1 <0>         0.1327
     28 H6          1.1168    5.7517    1.8869 H         1 <0>         0.1253
     29 H7          1.0182    6.4562    4.2398 H         1 <0>         0.1271
     30 H8          0.9983    7.9523   -1.0388 H         1 <0>         0.1311
     31 H9          0.4011    5.6799   -1.6496 H         1 <0>         0.1327
     32 H10        -1.5581    6.8062    1.2324 H         1 <0>         0.1399
     33 H11         0.4528    3.3668   -0.3623 H         1 <0>         0.1370
     34 H12         0.3536    0.0708    0.4328 H         1 <0>         0.1032
     35 H13         1.2369    1.6158    0.4667 H         1 <0>         0.0567
     36 H14        -0.0927    1.3760   -0.6922 H         1 <0>         0.0584
     37 H15        -0.8258    2.0933    4.1624 H         1 <0>         0.0433
     38 H16        -1.6628    3.5194    4.8212 H         1 <0>         0.0426
     39 H17        -2.4171    1.9114    4.9389 H         1 <0>         0.0923
     40 H18        -3.8159    7.1980    3.7286 H         1 <0>         0.1022
     41 H19        -2.2258    7.4311    2.9634 H         1 <0>         0.0567
     42 H20        -3.6514    7.0690    1.9610 H         1 <0>         0.0576
@<TRIPOS>BOND
     1    1    2 1
     2    1   23 1
     3    1   24 1
     4    1   25 1
     5    2    3 1
     6    3    8 ar
     7    3    4 ar
     8    4    5 ar
     9    4   26 1
    10    5    6 ar
    11    5   27 1
    12    6    7 ar
    13    6    9 1
    14    7    8 ar
    15    7   28 1
    16    8   29 1
    17    9   10 2
    18    9   30 1
    19   10   11 1
    20   10   31 1
    21   11   16 ar
    22   11   12 ar
    23   12   13 ar
    24   12   32 1
    25   13   14 ar
    26   13   21 1
    27   14   15 ar
    28   14   19 1
    29   15   16 ar
    30   15   17 1
    31   16   33 1
    32   17   18 1
    33   18   34 1
    34   18   35 1
    35   18   36 1
    36   19   20 1
    37   20   37 1
    38   20   38 1
    39   20   39 1
    40   21   22 1
    41   22   40 1
    42   22   41 1
    43   22   42 1
@<TRIPOS>MOLECULE
ZINC03861806
   52    56     0     0     0
SMALL
USER_CHARGES

@<TRIPOS>ATOM
      1 C1         -3.6930   -4.3953    1.3855 C.3       1 <0>         0.0252
      2 O1         -2.4437   -3.8768    0.9246 O.3       1 <0>        -0.3003
      3 C2         -2.4359   -2.5932    0.4754 C.ar      1 <0>         0.1495
      4 C3         -3.6051   -1.8476    0.4840 C.ar      1 <0>        -0.2259
      5 C4         -3.5982   -0.5428    0.0277 C.ar      1 <0>        -0.0209
      6 C5         -2.4270    0.0241   -0.4388 C.ar      1 <0>        -0.2100
      7 C6         -1.2537   -0.7147   -0.4507 C.ar      1 <0>         0.1530
      8 C7         -1.2551   -2.0250    0.0125 C.ar      1 <0>         0.0322
      9 O2         -0.1044   -2.7517    0.0077 O.3       1 <0>        -0.3125
     10 C8          0.1804   -3.5080   -1.1708 C.3       1 <0>         0.0352
     11 O3         -0.1020   -0.1562   -0.9103 O.3       1 <0>        -0.3009
     12 C9         -0.1736    1.1963   -1.3658 C.3       1 <0>         0.0228
     13 C10        -4.8712    0.2637    0.0384 C.3       1 <0>         0.0189
     14 H1         -4.6351    1.3241    0.1275 H         1 <0>         0.1131
     15 C11        -5.7434   -0.1683    1.2044 C.ar      1 <0>        -0.0529
     16 C12        -5.3819    0.3279    2.4585 C.ar      1 <0>        -0.0868
     17 C13        -6.1565   -0.0324    3.5478 C.ar      1 <0>         0.0421
     18 C14        -7.2723   -0.8695    3.3919 C.ar      1 <0>         0.0393
     19 C15        -7.6229   -1.3601    2.1459 C.ar      1 <0>        -0.0960
     20 C16        -6.8323   -0.9991    1.0529 C.ar      1 <0>        -0.1113
     21 C17        -7.2358   -1.5900   -0.2866 C.3       1 <0>         0.1688
     22 H2         -8.0711   -1.0261   -0.7019 H         1 <0>         0.0847
     23 C18        -6.0407   -1.4964   -1.2162 C.3       1 <0>        -0.1345
     24 H3         -5.2202   -2.1338   -0.8868 H         1 <0>         0.1266
     25 C19        -5.6449    0.0168   -1.2401 C.3       1 <0>        -0.1550
     26 H4         -6.5338    0.6466   -1.2763 H         1 <0>         0.1353
     27 C20        -4.8681    0.0939   -2.5223 C.2       1 <0>         0.5007
     28 O4         -3.9698    0.8653   -2.7630 O.2       1 <0>        -0.4366
     29 O5         -5.3498   -0.8527   -3.3612 O.3       1 <0>        -0.3458
     30 C21        -6.3520   -1.6858   -2.7083 C.3       1 <0>         0.0681
     31 O6         -7.6124   -2.9581   -0.1179 O.3       1 <0>        -0.5509
     32 O7         -7.8478   -1.0577    4.6012 O.3       1 <0>        -0.3030
     33 C22        -6.8554   -0.6544    5.5678 C.3       1 <0>         0.2110
     34 O8         -6.0375    0.2962    4.8542 O.3       1 <0>        -0.3017
     35 H5         -3.5594   -5.4258    1.7147 H         1 <0>         0.1036
     36 H6         -4.0518   -3.7913    2.2188 H         1 <0>         0.0550
     37 H7         -4.4206   -4.3644    0.5745 H         1 <0>         0.0591
     38 H8         -4.5223   -2.2870    0.8474 H         1 <0>         0.1403
     39 H9         -2.4259    1.0438   -0.7948 H         1 <0>         0.1436
     40 H10         1.1236   -4.0390   -1.0427 H         1 <0>         0.0933
     41 H11        -0.6206   -4.2268   -1.3436 H         1 <0>         0.0441
     42 H12         0.2553   -2.8352   -2.0251 H         1 <0>         0.0449
     43 H13        -0.8820    1.2647   -2.1914 H         1 <0>         0.0632
     44 H14        -0.5045    1.8377   -0.5490 H         1 <0>         0.0578
     45 H15         0.8112    1.5183   -1.7045 H         1 <0>         0.1032
     46 H16        -4.5237    0.9730    2.5752 H         1 <0>         0.1469
     47 H17        -8.4816   -2.0034    2.0228 H         1 <0>         0.1434
     48 H18        -6.2416   -2.7319   -2.9939 H         1 <0>         0.1164
     49 H19        -7.3548   -1.3271   -2.9400 H         1 <0>         0.0940
     50 H20        -8.3572   -3.0895    0.4848 H         1 <0>         0.3841
     51 H21        -7.3297   -0.1809    6.4274 H         1 <0>         0.1352
     52 H22        -6.2591   -1.5107    5.8829 H         1 <0>         0.0906
@<TRIPOS>BOND
     1    1    2 1
     2    1   35 1
     3    1   36 1
     4    1   37 1
     5    2    3 1
     6    3    8 ar
     7    3    4 ar
     8    4    5 ar
     9    4   38 1
    10    5    6 ar
    11    5   13 1
    12    6    7 ar
    13    6   39 1
    14    7    8 ar
    15    7   11 1
    16    8    9 1
    17    9   10 1
    18   10   40 1
    19   10   41 1
    20   10   42 1
    21   11   12 1
    22   12   43 1
    23   12   44 1
    24   12   45 1
    25   13   14 1
    26   13   25 1
    27   13   15 1
    28   15   20 ar
    29   15   16 ar
    30   16   17 ar
    31   16   46 1
    32   17   34 1
    33   17   18 ar
    34   18   19 ar
    35   18   32 1
    36   19   20 ar
    37   19   47 1
    38   20   21 1
    39   21   22 1
    40   21   23 1
    41   21   31 1
    42   23   24 1
    43   23   30 1
    44   23   25 1
    45   25   26 1
    46   25   27 1
    47   27   28 2
    48   27   29 1
    49   29   30 1
    50   30   48 1
    51   30   49 1
    52   31   50 1
    53   32   33 1
    54   33   34 1
    55   33   51 1
    56   33   52 1
@<TRIPOS>MOLECULE
ZINC13452167
   43    44     0     0     0
SMALL
USER_CHARGES
2-methoxy-5-[(Z)-2-(3,4,5-trimethoxyphenyl)vinyl]phenol
@<TRIPOS>ATOM
      1 C1         -2.5739   -5.3278   -3.5961 C.3       1 <0>         0.0240
      2 O1         -1.6433   -6.2084   -2.9633 O.3       1 <0>        -0.3061
      3 C2         -0.5548   -5.6403   -2.3797 C.ar      1 <0>         0.1097
      4 C3         -0.3395   -4.2750   -2.4987 C.ar      1 <0>        -0.1980
      5 C4          0.7628   -3.6933   -1.9089 C.ar      1 <0>        -0.0560
      6 C5          1.6664   -4.4799   -1.1890 C.ar      1 <0>        -0.0890
      7 C6          1.4521   -5.8563   -1.0743 C.ar      1 <0>        -0.0967
      8 C7          0.3413   -6.4307   -1.6633 C.ar      1 <0>         0.0694
      9 O2          0.1266   -7.7688   -1.5490 O.3       1 <0>        -0.4855
     10 C8          2.8451   -3.8608   -0.5577 C.2       1 <0>        -0.0895
     11 C9          2.7487   -2.6388   -0.0089 C.2       1 <0>        -0.1155
     12 C10         1.4284   -2.0039    0.1484 C.ar      1 <0>         0.0156
     13 C11         0.3151   -2.7778    0.4869 C.ar      1 <0>        -0.2135
     14 C12        -0.9229   -2.1786    0.6342 C.ar      1 <0>         0.1497
     15 C13        -1.0593   -0.8059    0.4515 C.ar      1 <0>         0.0278
     16 C14         0.0461   -0.0334    0.1089 C.ar      1 <0>         0.1482
     17 C15         1.2869   -0.6264   -0.0400 C.ar      1 <0>        -0.2267
     18 O3         -0.0925    1.3070   -0.0743 O.3       1 <0>        -0.3027
     19 C16         1.0849    2.0399   -0.4188 C.3       1 <0>         0.0244
     20 O4         -2.2772   -0.2188    0.6026 O.3       1 <0>        -0.3121
     21 C17        -3.1047   -0.1329   -0.5593 C.3       1 <0>         0.0358
     22 O5         -2.0068   -2.9309    0.9640 O.3       1 <0>        -0.3010
     23 C18        -1.7777   -4.3154    1.2336 C.3       1 <0>         0.0252
     24 H1         -2.0933   -4.8395   -4.4439 H         1 <0>         0.0562
     25 H2         -3.4343   -5.8985   -3.9455 H         1 <0>         0.1031
     26 H3         -2.9040   -4.5736   -2.8817 H         1 <0>         0.0570
     27 H4         -1.0368   -3.6662   -3.0551 H         1 <0>         0.1322
     28 H5          0.9282   -2.6303   -2.0034 H         1 <0>         0.1292
     29 H6          2.1502   -6.4688   -0.5230 H         1 <0>         0.1393
     30 H7          0.5319   -8.2937   -2.2528 H         1 <0>         0.3875
     31 H8          3.7865   -4.3897   -0.5363 H         1 <0>         0.1328
     32 H9          3.6389   -2.1215    0.3171 H         1 <0>         0.1342
     33 H10         0.4211   -3.8426    0.6328 H         1 <0>         0.1395
     34 H11         2.1453   -0.0256   -0.3020 H         1 <0>         0.1375
     35 H12         1.4905    1.6567   -1.3552 H         1 <0>         0.0568
     36 H13         0.8353    3.0945   -0.5356 H         1 <0>         0.1033
     37 H14         1.8271    1.9275    0.3715 H         1 <0>         0.0585
     38 H15        -2.5933    0.4470   -1.3275 H         1 <0>         0.0434
     39 H16        -3.3076   -1.1356   -0.9357 H         1 <0>         0.0427
     40 H17        -4.0444    0.3552   -0.3008 H         1 <0>         0.0924
     41 H18        -2.7303   -4.8120    1.4183 H         1 <0>         0.1030
     42 H19        -1.2880   -4.7764    0.3758 H         1 <0>         0.0560
     43 H20        -1.1402   -4.4139    2.1122 H         1 <0>         0.0581
@<TRIPOS>BOND
     1    1    2 1
     2    1   24 1
     3    1   25 1
     4    1   26 1
     5    2    3 1
     6    3    8 ar
     7    3    4 ar
     8    4    5 ar
     9    4   27 1
    10    5    6 ar
    11    5   28 1
    12    6    7 ar
    13    6   10 1
    14    7    8 ar
    15    7   29 1
    16    8    9 1
    17    9   30 1
    18   10   11 2
    19   10   31 1
    20   11   12 1
    21   11   32 1
    22   12   17 ar
    23   12   13 ar
    24   13   14 ar
    25   13   33 1
    26   14   15 ar
    27   14   22 1
    28   15   16 ar
    29   15   20 1
    30   16   17 ar
    31   16   18 1
    32   17   34 1
    33   18   19 1
    34   19   35 1
    35   19   36 1
    36   19   37 1
    37   20   21 1
    38   21   38 1
    39   21   39 1
    40   21   40 1
    41   22   23 1
    42   23   41 1
    43   23   42 1
    44   23   43 1
@<TRIPOS>MOLECULE
ZINC03871987
   42    44     0     0     0
SMALL
USER_CHARGES

@<TRIPOS>ATOM
      1 C1          0.7867   -0.2825   -1.6502 C.3       1 <0>         0.0214
      2 O1         -0.0471    0.0810   -0.5480 O.3       1 <0>        -0.3020
      3 C2         -1.2362   -0.5666   -0.4342 C.ar      1 <0>         0.1315
      4 C3         -1.5882   -1.5360   -1.3630 C.ar      1 <0>        -0.2028
      5 C4         -2.7932   -2.1960   -1.2524 C.ar      1 <0>        -0.0433
      6 C5         -3.6637   -1.8897   -0.2027 C.ar      1 <0>        -0.0932
      7 C6         -3.3087   -0.9136    0.7328 C.ar      1 <0>        -0.0446
      8 C7         -2.0969   -0.2597    0.6181 C.ar      1 <0>         0.0711
      9 O2         -1.7461    0.6868    1.5294 O.3       1 <0>        -0.4806
     10 C8         -4.9535   -2.5941   -0.0826 C.2       1 <0>         0.1858
     11 C9         -6.0824   -1.8630    0.1366 C.2       1 <0>        -0.0822
     12 C10        -7.3313   -2.5257    0.2544 C.2       1 <0>         0.4082
     13 O3         -8.3632   -1.9036    0.4505 O.2       1 <0>        -0.4372
     14 C11        -7.3345   -3.9922    0.1306 C.ar      1 <0>        -0.2504
     15 C12        -6.1122   -4.6499   -0.0955 C.ar      1 <0>         0.1761
     16 O4         -4.9729   -3.9328   -0.1989 O.3       1 <0>        -0.2018
     17 C13        -6.0925   -6.0310   -0.2153 C.ar      1 <0>        -0.1669
     18 C14        -7.2702   -6.7542   -0.1130 C.ar      1 <0>         0.1746
     19 C15        -8.4836   -6.1063    0.1109 C.ar      1 <0>         0.0121
     20 C16        -8.5223   -4.7267    0.2333 C.ar      1 <0>         0.2036
     21 O5         -9.7031   -4.0917    0.4512 O.3       1 <0>        -0.4654
     22 O6         -9.6327   -6.8300    0.2092 O.3       1 <0>        -0.3145
     23 C17       -10.0054   -7.2818    1.5126 C.3       1 <0>         0.0334
     24 O7         -7.2417   -8.1070   -0.2326 O.3       1 <0>        -0.4750
     25 O8         -6.0123   -0.5080    0.2421 O.3       1 <0>        -0.2954
     26 C18        -6.6588    0.2564   -0.7776 C.3       1 <0>         0.0262
     27 H1          1.7025    0.3080   -1.6231 H         1 <0>         0.1054
     28 H2          1.0352   -1.3417   -1.5840 H         1 <0>         0.0599
     29 H3          0.2583   -0.0909   -2.5841 H         1 <0>         0.0593
     30 H4         -0.9164   -1.7736   -2.1746 H         1 <0>         0.1421
     31 H5         -3.0648   -2.9494   -1.9769 H         1 <0>         0.1374
     32 H6         -3.9784   -0.6738    1.5455 H         1 <0>         0.1498
     33 H7         -2.0302    1.5813    1.2967 H         1 <0>         0.3903
     34 H8         -5.1581   -6.5440   -0.3890 H         1 <0>         0.1605
     35 H9        -10.1662   -3.8339   -0.3576 H         1 <0>         0.4056
     36 H10       -10.1432   -6.4227    2.1693 H         1 <0>         0.0530
     37 H11       -10.9370   -7.8441    1.4497 H         1 <0>         0.1003
     38 H12        -9.2203   -7.9230    1.9132 H         1 <0>         0.0437
     39 H13        -7.1120   -8.5732    0.6046 H         1 <0>         0.4007
     40 H14        -7.7354    0.0945   -0.7256 H         1 <0>         0.0592
     41 H15        -6.4429    1.3146   -0.6303 H         1 <0>         0.0986
     42 H16        -6.2911   -0.0568   -1.7547 H         1 <0>         0.0454
@<TRIPOS>BOND
     1    1    2 1
     2    1   27 1
     3    1   28 1
     4    1   29 1
     5    2    3 1
     6    3    8 ar
     7    3    4 ar
     8    4    5 ar
     9    4   30 1
    10    5    6 ar
    11    5   31 1
    12    6    7 ar
    13    6   10 1
    14    7    8 ar
    15    7   32 1
    16    8    9 1
    17    9   33 1
    18   10   16 1
    19   10   11 2
    20   11   12 1
    21   11   25 1
    22   12   13 2
    23   12   14 1
    24   14   20 ar
    25   14   15 ar
    26   15   16 1
    27   15   17 ar
    28   17   18 ar
    29   17   34 1
    30   18   19 ar
    31   18   24 1
    32   19   20 ar
    33   19   22 1
    34   20   21 1
    35   21   35 1
    36   22   23 1
    37   23   36 1
    38   23   37 1
    39   23   38 1
    40   24   39 1
    41   25   26 1
    42   26   40 1
    43   26   41 1
    44   26   42 1
@<TRIPOS>MOLECULE
ZINC06582608
   45    46     0     0     0
SMALL
USER_CHARGES
3-(3-hydroxy-4-methoxy-phenyl)-1-(3,4,5-trimethoxyphenyl)-prop-2-en-1-one
@<TRIPOS>ATOM
      1 C1         -3.6094    2.9946    0.0527 C.3       1 <0>         0.0220
      2 O1         -2.4253    3.7946    0.0457 O.3       1 <0>        -0.3030
      3 C2         -1.2371    3.1371    0.0308 C.ar      1 <0>         0.1240
      4 C3         -1.2143    1.7484    0.0173 C.ar      1 <0>        -0.2006
      5 C4         -0.0126    1.0758    0.0080 C.ar      1 <0>        -0.0590
      6 C5          1.1902    1.7926    0.0003 C.ar      1 <0>        -0.1123
      7 C6          1.1660    3.1926    0.0081 C.ar      1 <0>        -0.0744
      8 C7         -0.0434    3.8584    0.0233 C.ar      1 <0>         0.0717
      9 O2         -0.0708    5.2180    0.0313 O.3       1 <0>        -0.4836
     10 C8          2.4736    1.0781   -0.0163 C.2       1 <0>         0.0165
     11 C9          2.4946   -0.2739   -0.0243 C.2       1 <0>        -0.2534
     12 C10         3.7336   -0.9638   -0.0403 C.2       1 <0>         0.4279
     13 O3          4.7787   -0.3384   -0.0469 O.2       1 <0>        -0.4567
     14 C11         3.7566   -2.4406   -0.0490 C.ar      1 <0>        -0.0863
     15 C12         2.5583   -3.1592   -0.0356 C.ar      1 <0>        -0.1901
     16 C13         2.5825   -4.5411   -0.0482 C.ar      1 <0>         0.1381
     17 C14         3.7998   -5.2173   -0.0639 C.ar      1 <0>         0.0580
     18 C15         4.9955   -4.5034   -0.0724 C.ar      1 <0>         0.1390
     19 C16         4.9767   -3.1214   -0.0648 C.ar      1 <0>        -0.1768
     20 O4          6.1827   -5.1667   -0.0878 O.3       1 <0>        -0.3002
     21 C17         7.3700   -4.3716   -0.0954 C.3       1 <0>         0.0219
     22 O5          3.8209   -6.5761   -0.0714 O.3       1 <0>        -0.3125
     23 C18         3.8441   -7.2316    1.1981 C.3       1 <0>         0.0358
     24 O6          1.4165   -5.2411   -0.0394 O.3       1 <0>        -0.2995
     25 C19         0.2050   -4.4833   -0.0233 C.3       1 <0>         0.0214
     26 H1         -3.6313    2.3702   -0.8405 H         1 <0>         0.0588
     27 H2         -3.6143    2.3606    0.9394 H         1 <0>         0.0592
     28 H3         -4.4857    3.6427    0.0646 H         1 <0>         0.1052
     29 H4         -2.1415    1.1946    0.0183 H         1 <0>         0.1390
     30 H5          0.0021   -0.0041    0.0020 H         1 <0>         0.1344
     31 H6          2.0909    3.7502    0.0026 H         1 <0>         0.1447
     32 H7         -0.0870    5.6163   -0.8497 H         1 <0>         0.3900
     33 H8          3.4003    1.6326   -0.0222 H         1 <0>         0.1394
     34 H9          1.5678   -0.8284   -0.0184 H         1 <0>         0.1323
     35 H10         1.6141   -2.6352   -0.0192 H         1 <0>         0.1433
     36 H11         5.9042   -2.5683   -0.0714 H         1 <0>         0.1479
     37 H12         7.3771   -3.7377   -0.9821 H         1 <0>         0.0606
     38 H13         7.3948   -3.7472    0.7978 H         1 <0>         0.0594
     39 H14         8.2436   -5.0232   -0.1076 H         1 <0>         0.1062
     40 H15         2.9555   -6.9556    1.7658 H         1 <0>         0.0463
     41 H16         3.8595   -8.3113    1.0493 H         1 <0>         0.0957
     42 H17         4.7352   -6.9279    1.7476 H         1 <0>         0.0465
     43 H18         0.1786   -3.8592    0.8699 H         1 <0>         0.0581
     44 H19         0.1603   -3.8509   -0.9099 H         1 <0>         0.0593
     45 H20        -0.6480   -5.1620   -0.0177 H         1 <0>         0.1058
@<TRIPOS>BOND
     1    1    2 1
     2    1   26 1
     3    1   27 1
     4    1   28 1
     5    2    3 1
     6    3    8 ar
     7    3    4 ar
     8    4    5 ar
     9    4   29 1
    10    5    6 ar
    11    5   30 1
    12    6    7 ar
    13    6   10 1
    14    7    8 ar
    15    7   31 1
    16    8    9 1
    17    9   32 1
    18   10   11 2
    19   10   33 1
    20   11   12 1
    21   11   34 1
    22   12   13 2
    23   12   14 1
    24   14   19 ar
    25   14   15 ar
    26   15   16 ar
    27   15   35 1
    28   16   17 ar
    29   16   24 1
    30   17   18 ar
    31   17   22 1
    32   18   19 ar
    33   18   20 1
    34   19   36 1
    35   20   21 1
    36   21   37 1
    37   21   38 1
    38   21   39 1
    39   22   23 1
    40   23   40 1
    41   23   41 1
    42   23   42 1
    43   24   25 1
    44   25   43 1
    45   25   44 1
    46   25   45 1
