@<TRIPOS>MOLECULE
ZINC00621853
   54    56     0     0     0
SMALL
USER_CHARGES

@<TRIPOS>ATOM
      1 C1         -0.0284    1.4293   -0.4778 C.3       1 <0>        -0.1767
      2 C2         -0.0129   -0.0745   -0.3804 C.2       1 <0>         0.5133
      3 O1          1.0419   -0.6727   -0.4014 O.2       1 <0>        -0.5352
      4 N1         -1.1713   -0.7546   -0.2699 N.am      1 <0>        -0.7311
      5 C3         -1.1562   -2.2164   -0.1752 C.3       1 <0>         0.1688
      6 H1         -0.2762   -2.5266    0.3883 H         1 <0>         0.1083
      7 C4         -2.3999   -2.6766    0.5586 C.3       1 <0>        -0.1167
      8 C5         -2.6213   -4.1756    0.3776 C.3       1 <0>        -0.0793
      9 C6         -1.3153   -4.9067    0.5534 C.ar      1 <0>        -0.0232
     10 C7         -1.0582   -5.5960    1.7202 C.ar      1 <0>        -0.1967
     11 C8          0.1423   -6.2778    1.8745 C.ar      1 <0>         0.1328
     12 C9          1.0898   -6.2717    0.8565 C.ar      1 <0>         0.0421
     13 C10         0.8389   -5.5766   -0.3193 C.ar      1 <0>         0.1373
     14 C11        -0.3691   -4.8877   -0.4655 C.ar      1 <0>        -0.0983
     15 C12        -0.6334   -4.1159   -1.7162 C.2       1 <0>        -0.0547
     16 C13        -1.0800   -2.8009   -1.5711 C.2       1 <0>         0.0265
     17 C14        -1.4567   -1.9931   -2.5770 C.2       1 <0>        -0.2146
     18 C15        -1.4974   -2.1542   -3.9332 C.2       1 <0>         0.3926
     19 O2         -1.9764   -1.2222   -4.5653 O.2       1 <0>        -0.4893
     20 C16        -1.0654   -3.2383   -4.6895 C.2       1 <0>         0.1028
     21 C17        -0.5761   -4.4044   -4.1889 C.2       1 <0>        -0.1927
     22 C18        -0.4083   -4.7668   -2.9017 C.2       1 <0>        -0.0172
     23 O3         -1.1385   -3.1234   -6.0380 O.3       1 <0>        -0.2828
     24 C19        -0.6931   -4.2409   -6.8094 C.3       1 <0>         0.0136
     25 O4          1.7595   -5.5657   -1.3188 O.3       1 <0>        -0.3263
     26 C20         2.8002   -4.5904   -1.2317 C.3       1 <0>         0.0375
     27 O5          2.2617   -6.9458    1.0126 O.3       1 <0>        -0.3181
     28 C21         2.2856   -8.3114    0.5923 C.3       1 <0>         0.0378
     29 O6          0.3920   -6.9547    3.0264 O.3       1 <0>        -0.3018
     30 C22        -0.6230   -6.9211    4.0317 C.3       1 <0>         0.0227
     31 H2          0.9938    1.7986   -0.5602 H         1 <0>         0.0946
     32 H3         -0.5957    1.7305   -1.3585 H         1 <0>         0.0918
     33 H4         -0.4946    1.8464    0.4148 H         1 <0>         0.0904
     34 H5         -2.0149   -0.2761   -0.2531 H         1 <0>         0.4055
     35 H6         -2.2905   -2.4569    1.6206 H         1 <0>         0.0846
     36 H7         -3.2642   -2.1380    0.1701 H         1 <0>         0.0835
     37 H8         -3.3373   -4.5286    1.1197 H         1 <0>         0.0890
     38 H9         -3.0121   -4.3664   -0.6219 H         1 <0>         0.0850
     39 H10        -1.7902   -5.6054    2.5142 H         1 <0>         0.1419
     40 H11        -1.7954   -1.0220   -2.2473 H         1 <0>         0.1371
     41 H12        -0.2789   -5.1392   -4.9226 H         1 <0>         0.1361
     42 H13        -0.0246   -5.7689   -2.7793 H         1 <0>         0.1273
     43 H14        -1.2900   -5.1174   -6.5574 H         1 <0>         0.0642
     44 H15        -0.8052   -4.0177   -7.8704 H         1 <0>         0.1099
     45 H16         0.3557   -4.4397   -6.5888 H         1 <0>         0.0642
     46 H17         3.4194   -4.7966   -0.3586 H         1 <0>         0.0551
     47 H18         3.4145   -4.6331   -2.1311 H         1 <0>         0.0957
     48 H19         2.3606   -3.5973   -1.1389 H         1 <0>         0.0532
     49 H20         1.9730   -8.3763   -0.4499 H         1 <0>         0.0481
     50 H21         3.2970   -8.7050    0.6934 H         1 <0>         0.0941
     51 H22         1.6051   -8.8945    1.2127 H         1 <0>         0.0461
     52 H23        -1.5429   -7.3495    3.6338 H         1 <0>         0.0583
     53 H24        -0.2973   -7.4993    4.8964 H         1 <0>         0.1043
     54 H25        -0.8031   -5.8888    4.3318 H         1 <0>         0.0588
@<TRIPOS>BOND
     1    1    2 1
     2    1   31 1
     3    1   32 1
     4    1   33 1
     5    2    3 2
     6    2    4 am
     7    4    5 1
     8    4   34 1
     9    5    6 1
    10    5   16 1
    11    5    7 1
    12    7    8 1
    13    7   35 1
    14    7   36 1
    15    8    9 1
    16    8   37 1
    17    8   38 1
    18    9   14 ar
    19    9   10 ar
    20   10   11 ar
    21   10   39 1
    22   11   12 ar
    23   11   29 1
    24   12   13 ar
    25   12   27 1
    26   13   14 ar
    27   13   25 1
    28   14   15 1
    29   15   22 2
    30   15   16 1
    31   16   17 2
    32   17   18 1
    33   17   40 1
    34   18   19 2
    35   18   20 1
    36   20   21 2
    37   20   23 1
    38   21   22 1
    39   21   41 1
    40   22   42 1
    41   23   24 1
    42   24   43 1
    43   24   44 1
    44   24   45 1
    45   25   26 1
    46   26   46 1
    47   26   47 1
    48   26   48 1
    49   27   28 1
    50   28   49 1
    51   28   50 1
    52   28   51 1
    53   29   30 1
    54   30   52 1
    55   30   53 1
    56   30   54 1
@<TRIPOS>MOLECULE
ZINC05203255
   54    56     0     0     0
SMALL
USER_CHARGES
N-(trimethoxy-methylsulfanyl-oxo-BLAHyl)acetamide
@<TRIPOS>ATOM
      1 C1          5.8137   -0.2263   -2.6930 C.3       1 <0>        -0.1727
      2 C2          4.5620   -0.8369   -2.1170 C.2       1 <0>         0.5137
      3 O1          3.6392   -1.1306   -2.8471 O.2       1 <0>        -0.5365
      4 N1          4.4682   -1.0565   -0.7906 N.am      1 <0>        -0.7296
      5 C3          3.2515   -1.6500   -0.2306 C.3       1 <0>         0.1687
      6 H1          2.8388   -2.3590   -0.9484 H         1 <0>         0.1090
      7 C4          3.6029   -2.3876    1.0447 C.3       1 <0>        -0.1173
      8 C5          2.3496   -2.7126    1.8538 C.3       1 <0>        -0.0802
      9 C6          1.2751   -3.2401    0.9377 C.ar      1 <0>        -0.0199
     10 C7          0.9856   -4.5886    0.9139 C.ar      1 <0>        -0.1973
     11 C8         -0.0121   -5.0711    0.0769 C.ar      1 <0>         0.1357
     12 C9         -0.7250   -4.2007   -0.7408 C.ar      1 <0>         0.0418
     13 C10        -0.4363   -2.8426   -0.7249 C.ar      1 <0>         0.1406
     14 C11         0.5720   -2.3635    0.1171 C.ar      1 <0>        -0.1067
     15 C12         0.8928   -0.9045    0.1285 C.2       1 <0>        -0.0122
     16 C13         2.2368   -0.5534    0.0205 C.2       1 <0>         0.0091
     17 C14         2.7225    0.6987    0.1107 C.2       1 <0>        -0.1879
     18 C15         2.1286    1.9139    0.2881 C.2       1 <0>         0.3998
     19 O2          2.8892    2.8680    0.3836 O.2       1 <0>        -0.5004
     20 C16         0.7702    2.2122    0.3750 C.2       1 <0>        -0.1462
     21 C17        -0.2427    1.2984    0.3536 C.2       1 <0>        -0.0891
     22 C18        -0.1654   -0.0400    0.2566 C.2       1 <0>        -0.0481
     23 S1          0.3236    3.9101    0.5243 S.3       1 <0>        -0.0163
     24 C19        -1.4784    3.7559    0.5975 C.3       1 <0>        -0.1840
     25 O3         -1.1282   -1.9858   -1.5214 O.3       1 <0>        -0.3264
     26 C20        -0.6656   -1.8318   -2.8646 C.3       1 <0>         0.0373
     27 O4         -1.7040   -4.6797   -1.5559 O.3       1 <0>        -0.3177
     28 C21        -3.0255   -4.7414   -1.0155 C.3       1 <0>         0.0376
     29 O5         -0.2931   -6.4009    0.0564 O.3       1 <0>        -0.3012
     30 C22         0.4764   -7.2399    0.9202 C.3       1 <0>         0.0223
     31 H2          6.5256   -0.0321   -1.8908 H         1 <0>         0.0780
     32 H3          6.2561   -0.9153   -3.4125 H         1 <0>         0.0974
     33 H4          5.5646    0.7100   -3.1923 H         1 <0>         0.0979
     34 H5          5.2063   -0.8216   -0.2067 H         1 <0>         0.4054
     35 H6          4.1159   -3.3155    0.7915 H         1 <0>         0.0851
     36 H7          4.2652   -1.7656    1.6468 H         1 <0>         0.0837
     37 H8          2.5880   -3.4661    2.6045 H         1 <0>         0.0900
     38 H9          1.9924   -1.8090    2.3477 H         1 <0>         0.0850
     39 H10         1.5354   -5.2697    1.5465 H         1 <0>         0.1427
     40 H11         3.7978    0.7519    0.0251 H         1 <0>         0.1344
     41 H12        -1.2409    1.7054    0.4191 H         1 <0>         0.1335
     42 H13        -1.1261   -0.5325    0.2848 H         1 <0>         0.1286
     43 H14        -1.8397    3.2814   -0.3149 H         1 <0>         0.0909
     44 H15        -1.7563    3.1474    1.4581 H         1 <0>         0.0908
     45 H16        -1.9241    4.7459    0.6932 H         1 <0>         0.1137
     46 H17        -1.2507   -1.0596   -3.3641 H         1 <0>         0.0964
     47 H18         0.3854   -1.5429   -2.8561 H         1 <0>         0.0533
     48 H19        -0.7787   -2.7755   -3.3983 H         1 <0>         0.0556
     49 H20        -3.0482   -5.4546   -0.1915 H         1 <0>         0.0463
     50 H21        -3.3155   -3.7559   -0.6512 H         1 <0>         0.0483
     51 H22        -3.7209   -5.0608   -1.7918 H         1 <0>         0.0945
     52 H23         0.1517   -8.2741    0.8059 H         1 <0>         0.1047
     53 H24         1.5316   -7.1594    0.6594 H         1 <0>         0.0592
     54 H25         0.3326   -6.9261    1.9541 H         1 <0>         0.0586
@<TRIPOS>BOND
     1    1    2 1
     2    1   31 1
     3    1   32 1
     4    1   33 1
     5    2    3 2
     6    2    4 am
     7    4    5 1
     8    4   34 1
     9    5    6 1
    10    5   16 1
    11    5    7 1
    12    7    8 1
    13    7   35 1
    14    7   36 1
    15    8    9 1
    16    8   37 1
    17    8   38 1
    18    9   14 ar
    19    9   10 ar
    20   10   11 ar
    21   10   39 1
    22   11   12 ar
    23   11   29 1
    24   12   13 ar
    25   12   27 1
    26   13   14 ar
    27   13   25 1
    28   14   15 1
    29   15   22 2
    30   15   16 1
    31   16   17 2
    32   17   18 1
    33   17   40 1
    34   18   19 2
    35   18   20 1
    36   20   21 2
    37   20   23 1
    38   21   22 1
    39   21   41 1
    40   22   42 1
    41   23   24 1
    42   24   43 1
    43   24   44 1
    44   24   45 1
    45   25   26 1
    46   26   46 1
    47   26   47 1
    48   26   48 1
    49   27   28 1
    50   28   49 1
    51   28   50 1
    52   28   51 1
    53   29   30 1
    54   30   52 1
    55   30   53 1
    56   30   54 1
@<TRIPOS>MOLECULE
ZINC01587241
   51    53     0     0     0
SMALL
USER_CHARGES
N-(hydroxy-dimethoxy-methylsulfanyl-oxo-BLAHyl)acetamide
@<TRIPOS>ATOM
      1 C1         -3.1917    6.3531    2.5696 C.3       1 <0>        -0.1729
      2 C2         -3.1027    4.9456    2.0387 C.2       1 <0>         0.5145
      3 O1         -2.9920    4.0136    2.8069 O.2       1 <0>        -0.5383
      4 N1         -3.1460    4.7224    0.7102 N.am      1 <0>        -0.7294
      5 H1         -3.2345    5.4678    0.0958 H         1 <0>         0.4056
      6 C3         -3.0595    3.3540    0.1941 C.3       1 <0>         0.1691
      7 H2         -3.5504    2.6792    0.8953 H         1 <0>         0.1086
      8 C4         -3.7671    3.2837   -1.1562 C.3       1 <0>        -0.1166
      9 C5         -3.4049    2.0016   -1.9012 C.3       1 <0>        -0.0803
     10 C6         -3.4483    0.8334   -0.9501 C.ar      1 <0>        -0.0225
     11 C7         -4.5044   -0.0534   -0.9903 C.ar      1 <0>        -0.1946
     12 C8         -4.5318   -1.1418   -0.1280 C.ar      1 <0>         0.1291
     13 C9         -3.4983   -1.3451    0.7803 C.ar      1 <0>         0.0552
     14 C10        -2.4347   -0.4538    0.8299 C.ar      1 <0>         0.1315
     15 C11        -2.4149    0.6417   -0.0386 C.ar      1 <0>        -0.1047
     16 C12        -1.2772    1.6086    0.0176 C.2       1 <0>        -0.0157
     17 C13        -1.6009    2.9635    0.0711 C.2       1 <0>         0.0088
     18 C14        -0.7147    3.9756    0.0290 C.2       1 <0>        -0.1888
     19 C15         0.6473    4.0156   -0.0347 C.2       1 <0>         0.3998
     20 O2          1.1430    5.1319   -0.1119 O.2       1 <0>        -0.5001
     21 C16         1.5487    2.9529   -0.0229 C.2       1 <0>        -0.1456
     22 C17         1.2114    1.6311   -0.0007 C.2       1 <0>        -0.0896
     23 C18        -0.0126    1.0758    0.0080 C.2       1 <0>        -0.0478
     24 S1          3.2655    3.3489   -0.0384 S.3       1 <0>        -0.0157
     25 C19         3.9726    1.6829   -0.0168 C.3       1 <0>        -0.1842
     26 O3         -1.4217   -0.6444    1.7155 O.3       1 <0>        -0.3209
     27 C20        -1.5624   -0.0392    3.0023 C.3       1 <0>         0.0343
     28 O4         -3.5297   -2.4160    1.6196 O.3       1 <0>        -0.4711
     29 O5         -5.5740   -2.0133   -0.1723 O.3       1 <0>        -0.3022
     30 C21        -6.6023   -1.7468   -1.1281 C.3       1 <0>         0.0227
     31 H3         -3.2864    7.0502    1.7369 H         1 <0>         0.0783
     32 H4         -4.0627    6.4422    3.2188 H         1 <0>         0.0975
     33 H5         -2.2904    6.5851    3.1369 H         1 <0>         0.0981
     34 H6         -3.4758    4.1430   -1.7603 H         1 <0>         0.0837
     35 H7         -4.8446    3.3108   -0.9935 H         1 <0>         0.0843
     36 H8         -2.4013    2.0943   -2.3164 H         1 <0>         0.0852
     37 H9         -4.1176    1.8380   -2.7095 H         1 <0>         0.0901
     38 H10        -5.3104    0.0989   -1.6928 H         1 <0>         0.1424
     39 H11        -1.1745    4.9526    0.0494 H         1 <0>         0.1342
     40 H12         2.0393    0.9377    0.0110 H         1 <0>         0.1339
     41 H13         0.0021   -0.0041    0.0020 H         1 <0>         0.1301
     42 H14         5.0605    1.7498   -0.0238 H         1 <0>         0.1139
     43 H15         3.6464    1.1614    0.8831 H         1 <0>         0.0912
     44 H16         3.6366    1.1342   -0.8966 H         1 <0>         0.0912
     45 H17        -1.6520    1.0411    2.8879 H         1 <0>         0.0544
     46 H18        -2.4557   -0.4281    3.4910 H         1 <0>         0.0470
     47 H19        -0.6869   -0.2689    3.6096 H         1 <0>         0.0991
     48 H20        -3.9714   -2.2425    2.4622 H         1 <0>         0.3844
     49 H21        -7.0444   -0.7717   -0.9237 H         1 <0>         0.0584
     50 H22        -6.1756   -1.7493   -2.1311 H         1 <0>         0.0595
     51 H23        -7.3713   -2.5162   -1.0585 H         1 <0>         0.1049
@<TRIPOS>BOND
     1    1    2 1
     2    1   31 1
     3    1   32 1
     4    1   33 1
     5    2    3 2
     6    2    4 am
     7    4    5 1
     8    4    6 1
     9    6    7 1
    10    6   17 1
    11    6    8 1
    12    8    9 1
    13    8   34 1
    14    8   35 1
    15    9   10 1
    16    9   36 1
    17    9   37 1
    18   10   15 ar
    19   10   11 ar
    20   11   12 ar
    21   11   38 1
    22   12   13 ar
    23   12   29 1
    24   13   14 ar
    25   13   28 1
    26   14   15 ar
    27   14   26 1
    28   15   16 1
    29   16   23 2
    30   16   17 1
    31   17   18 2
    32   18   19 1
    33   18   39 1
    34   19   20 2
    35   19   21 1
    36   21   22 2
    37   21   24 1
    38   22   23 1
    39   22   40 1
    40   23   41 1
    41   24   25 1
    42   25   42 1
    43   25   43 1
    44   25   44 1
    45   26   27 1
    46   27   45 1
    47   27   46 1
    48   27   47 1
    49   28   48 1
    50   29   30 1
    51   30   49 1
    52   30   50 1
    53   30   51 1
@<TRIPOS>MOLECULE
ZINC01584949
   51    53     0     0     0
SMALL
USER_CHARGES
N-(hydroxy-dimethoxy-methylsulfanyl-oxo-BLAHyl)acetamide
@<TRIPOS>ATOM
      1 C1          4.7717    2.1976    5.2396 C.3       1 <0>        -0.1768
      2 C2          3.8204    2.1932    4.0708 C.2       1 <0>         0.5142
      3 O1          2.9335    1.3678    4.0139 O.2       1 <0>        -0.5372
      4 N1          3.9551    3.1064    3.0888 N.am      1 <0>        -0.7307
      5 H1          4.6643    3.7665    3.1343 H         1 <0>         0.4061
      6 C3          3.0302    3.1021    1.9527 C.3       1 <0>         0.1694
      7 H2          2.0458    2.7870    2.2986 H         1 <0>         0.1075
      8 C4          2.9307    4.5058    1.3913 C.3       1 <0>        -0.1183
      9 C5          2.2790    4.4999    0.0110 C.3       1 <0>        -0.0789
     10 C6          1.0752    3.5932    0.0220 C.ar      1 <0>        -0.0462
     11 C7         -0.1956    4.1292    0.0552 C.ar      1 <0>        -0.1302
     12 C8         -1.3037    3.2918    0.0491 C.ar      1 <0>         0.1115
     13 C9         -1.1410    1.9113    0.0052 C.ar      1 <0>         0.0541
     14 C10         0.1354    1.3647   -0.0162 C.ar      1 <0>         0.1156
     15 C11         1.2466    2.2132   -0.0095 C.ar      1 <0>        -0.0785
     16 C12         2.6217    1.6298   -0.0259 C.2       1 <0>        -0.0241
     17 C13         3.5277    2.1173    0.9143 C.2       1 <0>         0.0101
     18 C14         4.8264    1.7729    0.9936 C.2       1 <0>        -0.1887
     19 C15         5.6010    0.9014    0.2855 C.2       1 <0>         0.3999
     20 O2          6.7860    0.8750    0.5901 O.2       1 <0>        -0.4984
     21 C16         5.2200    0.0369   -0.7391 C.2       1 <0>        -0.1424
     22 C17         3.9695   -0.0466   -1.2781 C.2       1 <0>        -0.0926
     23 C18         2.8693    0.6582   -0.9632 C.2       1 <0>        -0.0437
     24 S1          6.4552   -1.0364   -1.3925 S.3       1 <0>        -0.0129
     25 C19         5.4820   -1.9112   -2.6429 C.3       1 <0>        -0.1848
     26 O3          0.3030    0.0164   -0.0491 O.3       1 <0>        -0.3211
     27 C20         0.5212   -0.6408    1.2008 C.3       1 <0>         0.0324
     28 O4         -2.2313    1.0968   -0.0113 O.3       1 <0>        -0.3198
     29 C21        -2.8220    0.7779    1.2502 C.3       1 <0>         0.0351
     30 O5         -2.5539    3.8245    0.0801 O.3       1 <0>        -0.4885
     31 H3          4.7054    3.1539    5.7584 H         1 <0>         0.0910
     32 H4          4.5080    1.3929    5.9258 H         1 <0>         0.0948
     33 H5          5.7899    2.0492    4.8798 H         1 <0>         0.0921
     34 H6          2.3338    5.1195    2.0660 H         1 <0>         0.0859
     35 H7          3.9311    4.9315    1.3127 H         1 <0>         0.0839
     36 H8          1.9684    5.5122   -0.2478 H         1 <0>         0.0918
     37 H9          2.9964    4.1415   -0.7273 H         1 <0>         0.0845
     38 H10        -0.3289    5.2005    0.0864 H         1 <0>         0.1439
     39 H11         5.3633    2.2910    1.7744 H         1 <0>         0.1349
     40 H12         3.8473   -0.7772   -2.0640 H         1 <0>         0.1347
     41 H13         2.0094    0.4112   -1.5681 H         1 <0>         0.1306
     42 H14         5.0905   -1.1949   -3.3652 H         1 <0>         0.0916
     43 H15         6.1156   -2.6348   -3.1557 H         1 <0>         0.1144
     44 H16         4.6538   -2.4307   -2.1609 H         1 <0>         0.0914
     45 H17        -0.3682   -0.5426    1.8231 H         1 <0>         0.0476
     46 H18         0.7269   -1.6967    1.0251 H         1 <0>         0.0985
     47 H19         1.3715   -0.1846    1.7077 H         1 <0>         0.0543
     48 H20        -2.1180    0.1949    1.8440 H         1 <0>         0.0437
     49 H21        -3.0683    1.6985    1.7791 H         1 <0>         0.0529
     50 H22        -3.7302    0.1969    1.0896 H         1 <0>         0.0975
     51 H23        -2.9279    4.0013   -0.7939 H         1 <0>         0.3980
@<TRIPOS>BOND
     1    1    2 1
     2    1   31 1
     3    1   32 1
     4    1   33 1
     5    2    3 2
     6    2    4 am
     7    4    5 1
     8    4    6 1
     9    6    7 1
    10    6   17 1
    11    6    8 1
    12    8    9 1
    13    8   34 1
    14    8   35 1
    15    9   10 1
    16    9   36 1
    17    9   37 1
    18   10   15 ar
    19   10   11 ar
    20   11   12 ar
    21   11   38 1
    22   12   13 ar
    23   12   30 1
    24   13   14 ar
    25   13   28 1
    26   14   15 ar
    27   14   26 1
    28   15   16 1
    29   16   23 2
    30   16   17 1
    31   17   18 2
    32   18   19 1
    33   18   39 1
    34   19   20 2
    35   19   21 1
    36   21   22 2
    37   21   24 1
    38   22   23 1
    39   22   40 1
    40   23   41 1
    41   24   25 1
    42   25   42 1
    43   25   43 1
    44   25   44 1
    45   26   27 1
    46   27   45 1
    47   27   46 1
    48   27   47 1
    49   28   29 1
    50   29   48 1
    51   29   49 1
    52   29   50 1
    53   30   51 1
@<TRIPOS>MOLECULE
ZINC05640267
   38    40     0     0     0
SMALL
USER_CHARGES

@<TRIPOS>ATOM
      1 C1         -1.8135   -0.3278    0.1495 C.3       1 <0>         0.0215
      2 O1         -0.4517    0.0706    0.3193 O.3       1 <0>        -0.3020
      3 C2          0.2573   -0.5559    1.2945 C.ar      1 <0>         0.1310
      4 C3         -0.3466   -1.5381    2.0670 C.ar      1 <0>        -0.2028
      5 C4          0.3679   -2.1769    3.0576 C.ar      1 <0>        -0.0439
      6 C5          1.7041   -1.8361    3.2856 C.ar      1 <0>        -0.0926
      7 C6          2.3122   -0.8472    2.5071 C.ar      1 <0>        -0.0448
      8 C7          1.5908   -0.2146    1.5127 C.ar      1 <0>         0.0714
      9 O2          2.1807    0.7447    0.7503 O.3       1 <0>        -0.4805
     10 C8          2.4703   -2.5178    4.3451 C.2       1 <0>         0.1845
     11 C9          3.2058   -1.7651    5.2106 C.2       1 <0>        -0.0827
     12 C10         3.9485   -2.4063    6.2357 C.2       1 <0>         0.4073
     13 O3          4.6184   -1.7648    7.0293 O.2       1 <0>        -0.4404
     14 C11         3.8793   -3.8746    6.3049 C.ar      1 <0>        -0.2638
     15 C12         4.5803   -4.5898    7.2850 C.ar      1 <0>         0.2214
     16 C13         4.4893   -5.9686    7.3171 C.ar      1 <0>        -0.2050
     17 C14         3.7074   -6.6394    6.3824 C.ar      1 <0>         0.1952
     18 C15         3.0117   -5.9387    5.4100 C.ar      1 <0>        -0.1821
     19 C16         3.0895   -4.5550    5.3618 C.ar      1 <0>         0.1815
     20 O4          2.4129   -3.8583    4.4248 O.3       1 <0>        -0.2038
     21 O5          3.6255   -7.9939    6.4229 O.3       1 <0>        -0.4866
     22 O6          5.3433   -3.9336    8.1955 O.3       1 <0>        -0.4716
     23 O7          3.2282   -0.4095    5.0926 O.3       1 <0>        -0.2959
     24 C17         2.6493    0.3442    6.1597 C.3       1 <0>         0.0267
     25 H1         -2.3629   -0.1467    1.0733 H         1 <0>         0.0590
     26 H2         -2.2626    0.2487   -0.6593 H         1 <0>         0.1054
     27 H3         -1.8537   -1.3892   -0.0951 H         1 <0>         0.0598
     28 H4         -1.3790   -1.8023    1.8918 H         1 <0>         0.1419
     29 H5         -0.1047   -2.9403    3.6577 H         1 <0>         0.1368
     30 H6          3.3444   -0.5807    2.6800 H         1 <0>         0.1498
     31 H7          2.0986    1.6386    1.1099 H         1 <0>         0.3903
     32 H8          5.0267   -6.5265    8.0696 H         1 <0>         0.1511
     33 H9          2.4085   -6.4707    4.6892 H         1 <0>         0.1550
     34 H10         2.9055   -8.3280    6.9752 H         1 <0>         0.4041
     35 H11         4.8683   -3.6845    9.0002 H         1 <0>         0.4029
     36 H12         2.6425    1.4017    5.8956 H         1 <0>         0.0982
     37 H13         1.6273    0.0059    6.3308 H         1 <0>         0.0447
     38 H14         3.2364    0.2000    7.0667 H         1 <0>         0.0589
@<TRIPOS>BOND
     1    1    2 1
     2    1   25 1
     3    1   26 1
     4    1   27 1
     5    2    3 1
     6    3    8 ar
     7    3    4 ar
     8    4    5 ar
     9    4   28 1
    10    5    6 ar
    11    5   29 1
    12    6    7 ar
    13    6   10 1
    14    7    8 ar
    15    7   30 1
    16    8    9 1
    17    9   31 1
    18   10   20 1
    19   10   11 2
    20   11   12 1
    21   11   23 1
    22   12   13 2
    23   12   14 1
    24   14   19 ar
    25   14   15 ar
    26   15   16 ar
    27   15   22 1
    28   16   17 ar
    29   16   32 1
    30   17   18 ar
    31   17   21 1
    32   18   19 ar
    33   18   33 1
    34   19   20 1
    35   21   34 1
    36   22   35 1
    37   23   24 1
    38   24   36 1
    39   24   37 1
    40   24   38 1
@<TRIPOS>MOLECULE
ZINC00753111
   32    34     0     0     0
SMALL
USER_CHARGES
N-(4-bromophenyl)-4-(2,4-dimethylthiazol-5-yl)-thiazol-2-amine
@<TRIPOS>ATOM
      1 C1         -0.0566    1.0856    0.0510 C.3       1 <0>        -0.0826
      2 C2         -0.7317    1.7734    1.2096 C.2       1 <0>         0.0990
      3 C3         -2.0519    2.1367    1.1427 C.2       1 <0>        -0.1440
      4 S1         -2.2689    2.8776    2.7545 S.3       1 <0>         0.0666
      5 C4         -0.6464    2.6471    3.3288 C.2       1 <0>         0.0968
      6 N1         -0.0706    2.0478    2.3121 N.2       1 <0>        -0.5099
      7 C5         -0.0501    3.0368    4.6569 C.3       1 <0>        -0.0663
      8 C6         -3.0260    1.9625    0.0433 C.2       1 <0>         0.1853
      9 C7         -4.3132    2.4032    0.1833 C.2       1 <0>        -0.2301
     10 S2         -4.9990    1.9399   -1.4014 S.3       1 <0>         0.0389
     11 C8         -3.5167    1.2126   -2.0854 C.2       1 <0>         0.3645
     12 N2         -2.6583    1.3799   -1.0961 N.2       1 <0>        -0.5437
     13 N3         -3.3190    0.6316   -3.3283 N.pl3     1 <0>        -0.6095
     14 C9         -4.4024    0.4401   -4.1908 C.ar      1 <0>         0.1756
     15 C10        -5.6602    0.1540   -3.6752 C.ar      1 <0>        -0.1531
     16 C11        -6.7298   -0.0290   -4.5295 C.ar      1 <0>        -0.0516
     17 C12        -6.5471    0.0612   -5.8981 C.ar      1 <0>        -0.1101
     18 C13        -5.2943    0.3405   -6.4147 C.ar      1 <0>        -0.0562
     19 C14        -4.2221    0.5300   -5.5652 C.ar      1 <0>        -0.1364
     20 Br1        -8.0128   -0.1971   -7.0647 Br        1 <0>        -0.0416
     21 H1         -0.1608    0.0059    0.1587 H         1 <0>         0.0716
     22 H2          1.0010    1.3490    0.0382 H         1 <0>         0.0669
     23 H3         -0.5218    1.4042   -0.8818 H         1 <0>         0.0961
     24 H4          0.3604    4.0443    4.5892 H         1 <0>         0.0938
     25 H5         -0.8238    3.0105    5.4243 H         1 <0>         0.0890
     26 H6          0.7443    2.3376    4.9177 H         1 <0>         0.0964
     27 H7         -4.7854    2.8950    1.0209 H         1 <0>         0.1984
     28 H8         -2.4288    0.3578   -3.5996 H         1 <0>         0.4301
     29 H9         -5.8024    0.0791   -2.6072 H         1 <0>         0.1398
     30 H10        -7.7088   -0.2470   -4.1290 H         1 <0>         0.1420
     31 H11        -5.1548    0.4106   -7.4834 H         1 <0>         0.1427
     32 H12        -3.2445    0.7483   -5.9690 H         1 <0>         0.1416
@<TRIPOS>BOND
     1    1    2 1
     2    1   21 1
     3    1   22 1
     4    1   23 1
     5    2    6 1
     6    2    3 2
     7    3    4 1
     8    3    8 1
     9    4    5 1
    10    5    6 2
    11    5    7 1
    12    7   24 1
    13    7   25 1
    14    7   26 1
    15    8   12 1
    16    8    9 2
    17    9   10 1
    18    9   27 1
    19   10   11 1
    20   11   12 2
    21   11   13 1
    22   13   14 1
    23   13   28 1
    24   14   19 ar
    25   14   15 ar
    26   15   16 ar
    27   15   29 1
    28   16   17 ar
    29   16   30 1
    30   17   18 ar
    31   17   20 1
    32   18   19 ar
    33   18   31 1
    34   19   32 1
@<TRIPOS>MOLECULE
ZINC03861806
   52    56     0     0     0
SMALL
USER_CHARGES

@<TRIPOS>ATOM
      1 C1         -3.6930   -4.3953    1.3855 C.3       1 <0>         0.0252
      2 O1         -2.4437   -3.8768    0.9246 O.3       1 <0>        -0.3003
      3 C2         -2.4359   -2.5932    0.4754 C.ar      1 <0>         0.1495
      4 C3         -3.6051   -1.8476    0.4840 C.ar      1 <0>        -0.2259
      5 C4         -3.5982   -0.5428    0.0277 C.ar      1 <0>        -0.0209
      6 C5         -2.4270    0.0241   -0.4388 C.ar      1 <0>        -0.2100
      7 C6         -1.2537   -0.7147   -0.4507 C.ar      1 <0>         0.1530
      8 C7         -1.2551   -2.0250    0.0125 C.ar      1 <0>         0.0322
      9 O2         -0.1044   -2.7517    0.0077 O.3       1 <0>        -0.3125
     10 C8          0.1804   -3.5080   -1.1708 C.3       1 <0>         0.0352
     11 O3         -0.1020   -0.1562   -0.9103 O.3       1 <0>        -0.3009
     12 C9         -0.1736    1.1963   -1.3658 C.3       1 <0>         0.0228
     13 C10        -4.8712    0.2637    0.0384 C.3       1 <0>         0.0189
     14 H1         -4.6351    1.3241    0.1275 H         1 <0>         0.1131
     15 C11        -5.7434   -0.1683    1.2044 C.ar      1 <0>        -0.0529
     16 C12        -5.3819    0.3279    2.4585 C.ar      1 <0>        -0.0868
     17 C13        -6.1565   -0.0324    3.5478 C.ar      1 <0>         0.0421
     18 C14        -7.2723   -0.8695    3.3919 C.ar      1 <0>         0.0393
     19 C15        -7.6229   -1.3601    2.1459 C.ar      1 <0>        -0.0960
     20 C16        -6.8323   -0.9991    1.0529 C.ar      1 <0>        -0.1113
     21 C17        -7.2358   -1.5900   -0.2866 C.3       1 <0>         0.1688
     22 H2         -8.0711   -1.0261   -0.7019 H         1 <0>         0.0847
     23 C18        -6.0407   -1.4964   -1.2162 C.3       1 <0>        -0.1345
     24 H3         -5.2202   -2.1338   -0.8868 H         1 <0>         0.1266
     25 C19        -5.6449    0.0168   -1.2401 C.3       1 <0>        -0.1550
     26 H4         -6.5338    0.6466   -1.2763 H         1 <0>         0.1353
     27 C20        -4.8681    0.0939   -2.5223 C.2       1 <0>         0.5007
     28 O4         -3.9698    0.8653   -2.7630 O.2       1 <0>        -0.4366
     29 O5         -5.3498   -0.8527   -3.3612 O.3       1 <0>        -0.3458
     30 C21        -6.3520   -1.6858   -2.7083 C.3       1 <0>         0.0681
     31 O6         -7.6124   -2.9581   -0.1179 O.3       1 <0>        -0.5509
     32 O7         -7.8478   -1.0577    4.6012 O.3       1 <0>        -0.3030
     33 C22        -6.8554   -0.6544    5.5678 C.3       1 <0>         0.2110
     34 O8         -6.0375    0.2962    4.8542 O.3       1 <0>        -0.3017
     35 H5         -3.5594   -5.4258    1.7147 H         1 <0>         0.1036
     36 H6         -4.0518   -3.7913    2.2188 H         1 <0>         0.0550
     37 H7         -4.4206   -4.3644    0.5745 H         1 <0>         0.0591
     38 H8         -4.5223   -2.2870    0.8474 H         1 <0>         0.1403
     39 H9         -2.4259    1.0438   -0.7948 H         1 <0>         0.1436
     40 H10         1.1236   -4.0390   -1.0427 H         1 <0>         0.0933
     41 H11        -0.6206   -4.2268   -1.3436 H         1 <0>         0.0441
     42 H12         0.2553   -2.8352   -2.0251 H         1 <0>         0.0449
     43 H13        -0.8820    1.2647   -2.1914 H         1 <0>         0.0632
     44 H14        -0.5045    1.8377   -0.5490 H         1 <0>         0.0578
     45 H15         0.8112    1.5183   -1.7045 H         1 <0>         0.1032
     46 H16        -4.5237    0.9730    2.5752 H         1 <0>         0.1469
     47 H17        -8.4816   -2.0034    2.0228 H         1 <0>         0.1434
     48 H18        -6.2416   -2.7319   -2.9939 H         1 <0>         0.1164
     49 H19        -7.3548   -1.3271   -2.9400 H         1 <0>         0.0940
     50 H20        -8.3572   -3.0895    0.4848 H         1 <0>         0.3841
     51 H21        -7.3297   -0.1809    6.4274 H         1 <0>         0.1352
     52 H22        -6.2591   -1.5107    5.8829 H         1 <0>         0.0906
@<TRIPOS>BOND
     1    1    2 1
     2    1   35 1
     3    1   36 1
     4    1   37 1
     5    2    3 1
     6    3    8 ar
     7    3    4 ar
     8    4    5 ar
     9    4   38 1
    10    5    6 ar
    11    5   13 1
    12    6    7 ar
    13    6   39 1
    14    7    8 ar
    15    7   11 1
    16    8    9 1
    17    9   10 1
    18   10   40 1
    19   10   41 1
    20   10   42 1
    21   11   12 1
    22   12   43 1
    23   12   44 1
    24   12   45 1
    25   13   14 1
    26   13   25 1
    27   13   15 1
    28   15   20 ar
    29   15   16 ar
    30   16   17 ar
    31   16   46 1
    32   17   34 1
    33   17   18 ar
    34   18   19 ar
    35   18   32 1
    36   19   20 ar
    37   19   47 1
    38   20   21 1
    39   21   22 1
    40   21   23 1
    41   21   31 1
    42   23   24 1
    43   23   30 1
    44   23   25 1
    45   25   26 1
    46   25   27 1
    47   27   28 2
    48   27   29 1
    49   29   30 1
    50   30   48 1
    51   30   49 1
    52   31   50 1
    53   32   33 1
    54   33   34 1
    55   33   51 1
    56   33   52 1
@<TRIPOS>MOLECULE
ZINC03871987
   42    44     0     0     0
SMALL
USER_CHARGES

@<TRIPOS>ATOM
      1 C1          0.7867   -0.2825   -1.6502 C.3       1 <0>         0.0214
      2 O1         -0.0471    0.0810   -0.5480 O.3       1 <0>        -0.3020
      3 C2         -1.2362   -0.5666   -0.4342 C.ar      1 <0>         0.1315
      4 C3         -1.5882   -1.5360   -1.3630 C.ar      1 <0>        -0.2028
      5 C4         -2.7932   -2.1960   -1.2524 C.ar      1 <0>        -0.0433
      6 C5         -3.6637   -1.8897   -0.2027 C.ar      1 <0>        -0.0932
      7 C6         -3.3087   -0.9136    0.7328 C.ar      1 <0>        -0.0446
      8 C7         -2.0969   -0.2597    0.6181 C.ar      1 <0>         0.0711
      9 O2         -1.7461    0.6868    1.5294 O.3       1 <0>        -0.4806
     10 C8         -4.9535   -2.5941   -0.0826 C.2       1 <0>         0.1858
     11 C9         -6.0824   -1.8630    0.1366 C.2       1 <0>        -0.0822
     12 C10        -7.3313   -2.5257    0.2544 C.2       1 <0>         0.4082
     13 O3         -8.3632   -1.9036    0.4505 O.2       1 <0>        -0.4372
     14 C11        -7.3345   -3.9922    0.1306 C.ar      1 <0>        -0.2504
     15 C12        -6.1122   -4.6499   -0.0955 C.ar      1 <0>         0.1761
     16 O4         -4.9729   -3.9328   -0.1989 O.3       1 <0>        -0.2018
     17 C13        -6.0925   -6.0310   -0.2153 C.ar      1 <0>        -0.1669
     18 C14        -7.2702   -6.7542   -0.1130 C.ar      1 <0>         0.1746
     19 C15        -8.4836   -6.1063    0.1109 C.ar      1 <0>         0.0121
     20 C16        -8.5223   -4.7267    0.2333 C.ar      1 <0>         0.2036
     21 O5         -9.7031   -4.0917    0.4512 O.3       1 <0>        -0.4654
     22 O6         -9.6327   -6.8300    0.2092 O.3       1 <0>        -0.3145
     23 C17       -10.0054   -7.2818    1.5126 C.3       1 <0>         0.0334
     24 O7         -7.2417   -8.1070   -0.2326 O.3       1 <0>        -0.4750
     25 O8         -6.0123   -0.5080    0.2421 O.3       1 <0>        -0.2954
     26 C18        -6.6588    0.2564   -0.7776 C.3       1 <0>         0.0262
     27 H1          1.7025    0.3080   -1.6231 H         1 <0>         0.1054
     28 H2          1.0352   -1.3417   -1.5840 H         1 <0>         0.0599
     29 H3          0.2583   -0.0909   -2.5841 H         1 <0>         0.0593
     30 H4         -0.9164   -1.7736   -2.1746 H         1 <0>         0.1421
     31 H5         -3.0648   -2.9494   -1.9769 H         1 <0>         0.1374
     32 H6         -3.9784   -0.6738    1.5455 H         1 <0>         0.1498
     33 H7         -2.0302    1.5813    1.2967 H         1 <0>         0.3903
     34 H8         -5.1581   -6.5440   -0.3890 H         1 <0>         0.1605
     35 H9        -10.1662   -3.8339   -0.3576 H         1 <0>         0.4056
     36 H10       -10.1432   -6.4227    2.1693 H         1 <0>         0.0530
     37 H11       -10.9370   -7.8441    1.4497 H         1 <0>         0.1003
     38 H12        -9.2203   -7.9230    1.9132 H         1 <0>         0.0437
     39 H13        -7.1120   -8.5732    0.6046 H         1 <0>         0.4007
     40 H14        -7.7354    0.0945   -0.7256 H         1 <0>         0.0592
     41 H15        -6.4429    1.3146   -0.6303 H         1 <0>         0.0986
     42 H16        -6.2911   -0.0568   -1.7547 H         1 <0>         0.0454
@<TRIPOS>BOND
     1    1    2 1
     2    1   27 1
     3    1   28 1
     4    1   29 1
     5    2    3 1
     6    3    8 ar
     7    3    4 ar
     8    4    5 ar
     9    4   30 1
    10    5    6 ar
    11    5   31 1
    12    6    7 ar
    13    6   10 1
    14    7    8 ar
    15    7   32 1
    16    8    9 1
    17    9   33 1
    18   10   16 1
    19   10   11 2
    20   11   12 1
    21   11   25 1
    22   12   13 2
    23   12   14 1
    24   14   20 ar
    25   14   15 ar
    26   15   16 1
    27   15   17 ar
    28   17   18 ar
    29   17   34 1
    30   18   19 ar
    31   18   24 1
    32   19   20 ar
    33   19   22 1
    34   20   21 1
    35   21   35 1
    36   22   23 1
    37   23   36 1
    38   23   37 1
    39   23   38 1
    40   24   39 1
    41   25   26 1
    42   26   40 1
    43   26   41 1
    44   26   42 1
