@<TRIPOS>MOLECULE
ZINC03830999
   35    36     0     0     0
SMALL
USER_CHARGES

@<TRIPOS>ATOM
      1 C1          0.3964    9.1817   -3.6528 C.ar      1 <0>        -0.1576
      2 C2          0.1763    9.8444   -4.8449 C.ar      1 <0>        -0.0964
      3 C3          0.1102   11.2293   -4.8665 C.ar      1 <0>         0.1165
      4 C4          0.2600   11.9496   -3.6898 C.ar      1 <0>        -0.0955
      5 C5          0.4748   11.2867   -2.4970 C.ar      1 <0>        -0.0853
      6 C6          0.5408    9.9010   -2.4757 C.ar      1 <0>         0.1172
      7 O1          0.7528    9.2484   -1.3019 O.3       1 <0>        -0.2423
      8 C7          0.8102    7.8909   -1.3280 C.ar      1 <0>         0.1500
      9 C8          2.0253    7.2501   -1.5256 C.ar      1 <0>        -0.1104
     10 C9          2.0808    5.8694   -1.5512 C.ar      1 <0>        -0.0808
     11 C10         0.9272    5.1266   -1.3802 C.ar      1 <0>        -0.0964
     12 C11        -0.2856    5.7624   -1.1888 C.ar      1 <0>        -0.0429
     13 C12        -0.3462    7.1427   -1.1566 C.ar      1 <0>        -0.1074
     14 I1         -2.1831    8.1050   -0.8587 I         1 <0>         0.0127
     15 C13         0.9909    3.6212   -1.4086 C.3       1 <0>        -0.0843
     16 C14         1.2350    3.0943    0.0069 C.3       1 <0>        -0.0134
     17 H1          0.4688    3.4843    0.6769 H         1 <0>         0.1415
     18 C15         1.1765    1.5884   -0.0006 C.2       1 <0>         0.4555
     19 O2          2.1986    0.9442   -0.0139 O.co2     1 <0>        -0.6116
     20 I2          3.7739    8.3746   -1.7841 I         1 <0>         0.0083
     21 I3          0.1609   14.0420   -3.7224 I         1 <0>        -0.0081
     22 O3         -0.1008   11.8817   -6.0409 O.3       1 <0>        -0.4824
     23 H2          0.4522    8.1033   -3.6369 H         1 <0>         0.1308
     24 H3          0.0597    9.2840   -5.7607 H         1 <0>         0.1439
     25 H4          0.5917   11.8471   -1.5811 H         1 <0>         0.1457
     26 H5          3.0261    5.3702   -1.7046 H         1 <0>         0.1446
     27 H6         -1.1858    5.1797   -1.0599 H         1 <0>         0.1544
     28 H7          1.8055    3.3043   -2.0598 H         1 <0>         0.1024
     29 H8          0.0485    3.2247   -1.7864 H         1 <0>         0.1302
     30 H9          3.2870    3.1816   -0.1348 H         1 <0>         0.4349
     31 H10         2.6024    4.5358    0.5458 H         1 <0>         0.4158
     32 H11         0.7103   12.1096   -6.5155 H         1 <0>         0.3941
     33 O4         -0.0110    0.9628    0.0073 O.co2     1 <0>        -0.6956
     34 N1          2.5594    3.5194    0.4930 N.4       1 <0>        -0.6288
     35 H12         2.7168    3.1284    1.4293 H         1 <0>         0.4405
@<TRIPOS>BOND
     1    1    6 ar
     2    1    2 ar
     3    1   23 1
     4    2    3 ar
     5    2   24 1
     6    3    4 ar
     7    3   22 1
     8    4    5 ar
     9    4   21 1
    10    5    6 ar
    11    5   25 1
    12    6    7 1
    13    7    8 1
    14    8   13 ar
    15    8    9 ar
    16    9   10 ar
    17    9   20 1
    18   10   11 ar
    19   10   26 1
    20   11   12 ar
    21   11   15 1
    22   12   13 ar
    23   12   27 1
    24   13   14 1
    25   15   16 1
    26   15   28 1
    27   15   29 1
    28   16   17 1
    29   16   18 1
    30   16   34 1
    31   18   19 2
    32   18   33 1
    33   22   32 1
    34   30   34 1
    35   31   34 1
    36   34   35 1
@<TRIPOS>MOLECULE
ZINC13602429
   44    45     0     0     0
SMALL
USER_CHARGES
(2S)-2-amino-3-[3,5-dibromo-4-(4-hydroxy-3-isopropyl-phenoxy)phenyl]propanoic acid
@<TRIPOS>ATOM
      1 C1         -0.9600   13.9242   -2.8175 C.3       1 <0>        -0.1443
      2 C2          0.1881   13.4549   -3.7134 C.3       1 <0>        -0.0572
      3 C3          1.5066   14.0367   -3.1994 C.3       1 <0>        -0.1458
      4 C4          0.2603   11.9498   -3.6903 C.ar      1 <0>        -0.0599
      5 C5          0.4752   11.2869   -2.4975 C.ar      1 <0>        -0.1159
      6 C6          0.5412    9.9015   -2.4762 C.ar      1 <0>         0.1179
      7 C7          0.3971    9.1821   -3.6538 C.ar      1 <0>        -0.1782
      8 C8          0.1765    9.8447   -4.8452 C.ar      1 <0>        -0.1000
      9 C9          0.1105   11.2303   -4.8664 C.ar      1 <0>         0.0817
     10 O1         -0.1005   11.8830   -6.0404 O.3       1 <0>        -0.4914
     11 O2          0.7527    9.2489   -1.3024 O.3       1 <0>        -0.2425
     12 C10         0.8101    7.8913   -1.3285 C.ar      1 <0>         0.1441
     13 C11         2.0254    7.2503   -1.5256 C.ar      1 <0>        -0.0947
     14 C12         2.0808    5.8694   -1.5512 C.ar      1 <0>        -0.0929
     15 C13         0.9272    5.1266   -1.3802 C.ar      1 <0>        -0.0954
     16 C14        -0.2856    5.7623   -1.1889 C.ar      1 <0>        -0.0510
     17 C15        -0.3464    7.1430   -1.1575 C.ar      1 <0>        -0.0919
     18 Br1        -2.0046    8.0114   -0.8886 Br        1 <0>         0.0016
     19 C16         0.9909    3.6212   -1.4086 C.3       1 <0>        -0.0872
     20 C17         1.2350    3.0943    0.0069 C.3       1 <0>        -0.0126
     21 H1          0.4688    3.4843    0.6769 H         1 <0>         0.1416
     22 C18         1.1765    1.5884   -0.0006 C.2       1 <0>         0.4583
     23 O3          2.1986    0.9442   -0.0139 O.co2     1 <0>        -0.6112
     24 Br2         3.6039    8.2653   -1.7583 Br        1 <0>        -0.0031
     25 H2         -0.7864   13.5844   -1.7965 H         1 <0>         0.0572
     26 H3         -1.0122   15.0128   -2.8342 H         1 <0>         0.0616
     27 H4         -1.8993   13.5097   -3.1837 H         1 <0>         0.0574
     28 H5          0.0145   13.7947   -4.7344 H         1 <0>         0.0894
     29 H6          2.3245   13.7023   -3.8376 H         1 <0>         0.0550
     30 H7          1.4543   15.1253   -3.2161 H         1 <0>         0.0620
     31 H8          1.6801   13.6969   -2.1784 H         1 <0>         0.0579
     32 H9          0.5922   11.8472   -1.5817 H         1 <0>         0.1382
     33 H10         0.4533    8.1036   -3.6381 H         1 <0>         0.1241
     34 H11         0.0599    9.2845   -5.7611 H         1 <0>         0.1344
     35 H12         0.7105   12.1109   -6.5151 H         1 <0>         0.3885
     36 H13         3.0261    5.3701   -1.7046 H         1 <0>         0.1486
     37 H14        -1.1857    5.1796   -1.0597 H         1 <0>         0.1582
     38 H15         1.8055    3.3043   -2.0598 H         1 <0>         0.1031
     39 H16         0.0485    3.2247   -1.7864 H         1 <0>         0.1304
     40 H17         2.7179    3.2500    1.4264 H         1 <0>         0.4371
     41 H18         3.2870    3.1816   -0.1348 H         1 <0>         0.4352
     42 O4         -0.0110    0.9628    0.0073 O.co2     1 <0>        -0.6959
     43 N1          2.5562    3.5557    0.4682 N.4       1 <0>        -0.6291
     44 H19         2.5863    4.5814    0.4342 H         1 <0>         0.4169
@<TRIPOS>BOND
     1    1    2 1
     2    1   25 1
     3    1   26 1
     4    1   27 1
     5    2    3 1
     6    2    4 1
     7    2   28 1
     8    3   29 1
     9    3   30 1
    10    3   31 1
    11    4    9 ar
    12    4    5 ar
    13    5    6 ar
    14    5   32 1
    15    6    7 ar
    16    6   11 1
    17    7    8 ar
    18    7   33 1
    19    8    9 ar
    20    8   34 1
    21    9   10 1
    22   10   35 1
    23   11   12 1
    24   12   17 ar
    25   12   13 ar
    26   13   14 ar
    27   13   24 1
    28   14   15 ar
    29   14   36 1
    30   15   16 ar
    31   15   19 1
    32   16   17 ar
    33   16   37 1
    34   17   18 1
    35   19   20 1
    36   19   38 1
    37   19   39 1
    38   20   21 1
    39   20   22 1
    40   20   43 1
    41   22   23 2
    42   22   42 1
    43   40   43 1
    44   41   43 1
    45   43   44 1
@<TRIPOS>MOLECULE
ZINC04217580
   29    30     0     0     0
SMALL
USER_CHARGES
2-[4-(4-hydroxy-3-iodo-phenoxy)-3,5-diiodo-phenyl]acetic acid
@<TRIPOS>ATOM
      1 C1          2.2201    3.8257   -2.3751 C.ar      1 <0>        -0.1567
      2 C2          2.7630    4.1691   -3.5982 C.ar      1 <0>        -0.0956
      3 C3          3.9519    4.8805   -3.6540 C.ar      1 <0>         0.1022
      4 C4          4.5940    5.2521   -2.4811 C.ar      1 <0>        -0.0928
      5 C5          4.0484    4.9133   -1.2581 C.ar      1 <0>        -0.0942
      6 C6          2.8588    4.2015   -1.2025 C.ar      1 <0>         0.1312
      7 O1          2.3219    3.8675    0.0011 O.3       1 <0>        -0.2378
      8 C7          1.1555    3.1701    0.0081 C.ar      1 <0>         0.1154
      9 C8          1.1751    1.7824    0.0004 C.ar      1 <0>        -0.1024
     10 C9         -0.0126    1.0758    0.0080 C.ar      1 <0>        -0.0530
     11 C10        -1.2196    1.7501    0.0174 C.ar      1 <0>        -0.0106
     12 C11        -1.2421    3.1326    0.0307 C.ar      1 <0>        -0.0526
     13 C12        -0.0575    3.8443    0.0233 C.ar      1 <0>        -0.1022
     14 I1         -0.0928    5.9390    0.0355 I         1 <0>        -0.0204
     15 C13        -2.5131    0.9769    0.0188 C.3       1 <0>        -0.1355
     16 C14        -2.9378    0.7109    1.4400 C.2       1 <0>         0.4661
     17 O2         -2.2597    1.1085    2.3576 O.co2     1 <0>        -0.6272
     18 I2          3.0034    0.7597   -0.0218 I         1 <0>        -0.0214
     19 I3          6.3906    6.3263   -2.5654 I         1 <0>        -0.0226
     20 O3          4.4891    5.2136   -4.8581 O.3       1 <0>        -0.4845
     21 H1          1.2964    3.2678   -2.3318 H         1 <0>         0.1352
     22 H2          2.2636    3.8796   -4.5110 H         1 <0>         0.1404
     23 H3          4.5481    5.2021   -0.3452 H         1 <0>         0.1428
     24 H4          0.0021   -0.0041    0.0020 H         1 <0>         0.1400
     25 H5         -2.1863    3.6567    0.0426 H         1 <0>         0.1401
     26 H6         -3.2839    1.5573   -0.4882 H         1 <0>         0.0853
     27 H7         -2.3706    0.0295   -0.5012 H         1 <0>         0.0852
     28 H8          5.0974    4.5516   -5.2141 H         1 <0>         0.3885
     29 O4         -4.0694    0.0323    1.6866 O.co2     1 <0>        -0.7626
@<TRIPOS>BOND
     1    1    6 ar
     2    1    2 ar
     3    1   21 1
     4    2    3 ar
     5    2   22 1
     6    3    4 ar
     7    3   20 1
     8    4    5 ar
     9    4   19 1
    10    5    6 ar
    11    5   23 1
    12    6    7 1
    13    7    8 1
    14    8   13 ar
    15    8    9 ar
    16    9   10 ar
    17    9   18 1
    18   10   11 ar
    19   10   24 1
    20   11   12 ar
    21   11   15 1
    22   12   13 ar
    23   12   25 1
    24   13   14 1
    25   15   16 1
    26   15   26 1
    27   15   27 1
    28   16   17 2
    29   16   29 1
    30   20   28 1
