@<TRIPOS>MOLECULE
ZINC00159755
   23    23     0     0     0
SMALL
USER_CHARGES
piperidine-1-carboxamidine
@<TRIPOS>ATOM
      1 C1          1.4165    4.1687    0.9705 C.3       1 <0>        -0.1293
      2 C2          2.3565    2.9657    1.0786 C.3       1 <0>        -0.1389
      3 C3          2.0675    1.9922   -0.0682 C.3       1 <0>         0.1034
      4 N1          0.6397    1.6463   -0.0463 N.pl3     1 <0>        -0.5871
      5 C4         -0.3506    2.7315   -0.0609 C.3       1 <0>         0.1021
      6 C5         -0.0343    3.6969    1.0915 C.3       1 <0>        -0.1395
      7 C6          0.2379    0.3317   -0.0185 C.cat     1 <0>         0.7343
      8 N2         -1.0954    0.0231    0.1123 N.pl3     1 <0>        -0.8102
      9 H1          1.6368    4.8747    1.7712 H         1 <0>         0.0835
     10 H2          1.5605    4.6565    0.0065 H         1 <0>         0.0753
     11 H3          2.1956    2.4627    2.0321 H         1 <0>         0.0762
     12 H4          3.3904    3.3052    1.0159 H         1 <0>         0.0976
     13 H5          2.6643    1.0891    0.0597 H         1 <0>         0.0895
     14 H6          2.3150    2.4619   -1.0202 H         1 <0>         0.1042
     15 H7         -0.2967    3.2626   -1.0113 H         1 <0>         0.1028
     16 H8         -1.3496    2.3165    0.0720 H         1 <0>         0.0900
     17 H9         -0.1728    3.1870    2.0448 H         1 <0>         0.0759
     18 H10        -0.7020    4.5568    1.0385 H         1 <0>         0.0962
     19 H11         0.9360   -1.5797   -0.1064 H         1 <0>         0.4494
     20 H12        -1.7597    0.7300    0.1069 H         1 <0>         0.4364
     21 H13        -1.3720   -0.9015    0.2099 H         1 <0>         0.4370
     22 N3          1.1840   -0.5903   -0.1220 N.pl3     1 <0>        -0.8007
     23 H14         2.1668   -0.3088   -0.2178 H         1 <0>         0.4520
@<TRIPOS>BOND
     1    1    6 1
     2    1    2 1
     3    1    9 1
     4    1   10 1
     5    2    3 1
     6    2   11 1
     7    2   12 1
     8    3    4 1
     9    3   13 1
    10    3   14 1
    11    4    5 1
    12    4    7 1
    13    5    6 1
    14    5   15 1
    15    5   16 1
    16    6   17 1
    17    6   18 1
    18    7    8 1
    19    7   22 2
    20    8   20 1
    21    8   21 1
    22   19   22 1
    23   22   23 1
@<TRIPOS>MOLECULE
ZINC00410207
   26    28     0     0     0
SMALL
USER_CHARGES
3-(2-iodophenyl)-4-oxa-2-azabicyclo[4.4.0]deca-2,7,9,11-tetraen-5-one
@<TRIPOS>ATOM
      1 C1          0.0282    4.1301    0.0249 C.ar      1 <0>        -0.1304
      2 C2         -1.1806    3.4467    0.0323 C.ar      1 <0>        -0.0668
      3 C3         -1.2131    2.0699    0.0305 C.ar      1 <0>        -0.0969
      4 C4         -0.0163    1.3506    0.0095 C.ar      1 <0>         0.1556
      5 C5          1.2126    2.0500    0.0015 C.ar      1 <0>        -0.2269
      6 C6          1.2228    3.4425    0.0093 C.ar      1 <0>        -0.0331
      7 C7          2.4534    1.2611   -0.0141 C.2       1 <0>         0.5287
      8 O1          3.5441    1.7994   -0.0216 O.2       1 <0>        -0.4356
      9 O2          2.3353   -0.0854   -0.0202 O.3       1 <0>        -0.3043
     10 C8          1.1256   -0.6706   -0.0123 C.2       1 <0>         0.3971
     11 N1          0.0021   -0.0041    0.0020 N.2       1 <0>        -0.4880
     12 C9          1.0629   -2.1460   -0.0196 C.ar      1 <0>        -0.0426
     13 C10         2.2396   -2.8981   -0.0348 C.ar      1 <0>        -0.0671
     14 C11         2.1737   -4.2756   -0.0417 C.ar      1 <0>        -0.1100
     15 C12         0.9454   -4.9133   -0.0334 C.ar      1 <0>        -0.0808
     16 C13        -0.2243   -4.1753   -0.0183 C.ar      1 <0>        -0.0920
     17 C14        -0.1735   -2.7958   -0.0055 C.ar      1 <0>        -0.0571
     18 I1         -1.9462   -1.6798    0.0262 I         1 <0>         0.0205
     19 H1          0.0324    5.2101    0.0310 H         1 <0>         0.1393
     20 H2         -2.1070    4.0018    0.0441 H         1 <0>         0.1400
     21 H3         -2.1592    1.5492    0.0407 H         1 <0>         0.1417
     22 H4          2.1597    3.9797    0.0036 H         1 <0>         0.1425
     23 H5          3.1989   -2.4021   -0.0417 H         1 <0>         0.1440
     24 H6          3.0830   -4.8582   -0.0531 H         1 <0>         0.1405
     25 H7          0.9000   -5.9924   -0.0384 H         1 <0>         0.1401
     26 H8         -1.1795   -4.6793   -0.0123 H         1 <0>         0.1414
@<TRIPOS>BOND
     1    1    6 ar
     2    1    2 ar
     3    1   19 1
     4    2    3 ar
     5    2   20 1
     6    3    4 ar
     7    3   21 1
     8    4   11 1
     9    4    5 ar
    10    5    6 ar
    11    5    7 1
    12    6   22 1
    13    7    8 2
    14    7    9 1
    15    9   10 1
    16   10   11 2
    17   10   12 1
    18   12   17 ar
    19   12   13 ar
    20   13   14 ar
    21   13   23 1
    22   14   15 ar
    23   14   24 1
    24   15   16 ar
    25   15   25 1
    26   16   17 ar
    27   16   26 1
    28   17   18 1
@<TRIPOS>MOLECULE
ZINC13986542
   58    61     0     0     0
SMALL
USER_CHARGES
1-[1-[(2S)-3-[(6-chloro-2-naphthyl)sulfonyl]-2-hydroxy-propanoyl]-4-piperidyl]hexahydropyrimidin-2-one
@<TRIPOS>ATOM
      1 C1         -1.7260    5.1982    5.9611 C.ar      1 <0>        -0.1124
      2 C2         -2.4956    4.2691    5.3306 C.ar      1 <0>        -0.0426
      3 C3         -3.6558    4.6387    4.6534 C.ar      1 <0>        -0.6573
      4 C4         -4.0591    5.9382    4.6114 C.ar      1 <0>         0.0190
      5 C5         -3.2935    6.9249    5.2550 C.ar      1 <0>        -0.0794
      6 C6         -2.1102    6.5496    5.9395 C.ar      1 <0>        -0.0023
      7 C7         -1.3445    7.5361    6.5839 C.ar      1 <0>        -0.1098
      8 C8         -1.7481    8.8363    6.5423 C.ar      1 <0>        -0.0079
      9 C9         -2.9123    9.2051    5.8681 C.ar      1 <0>        -0.1174
     10 C10        -3.6783    8.2766    5.2337 C.ar      1 <0>        -0.0715
     11 Cl1        -0.7996   10.0523    7.3394 Cl        1 <0>        -0.0583
     12 S1         -4.6194    3.4046    3.8452 S.o2      1 <0>         2.5073
     13 O1         -5.9382    3.9330    3.8201 O.2       1 <0>        -0.9126
     14 O2         -4.3336    2.2033    4.5485 O.2       1 <0>        -0.9255
     15 C11        -3.9489    3.3177    2.1620 C.3       1 <0>        -0.6595
     16 C12        -4.7184    2.2662    1.3601 C.3       1 <0>         0.1062
     17 H1         -4.6984    1.3160    1.8937 H         1 <0>         0.1384
     18 C13        -4.0757    2.0963    0.0076 C.2       1 <0>         0.5024
     19 O3         -4.5939    2.5823   -0.9754 O.2       1 <0>        -0.5224
     20 N1         -2.9251    1.4043   -0.1096 N.am      1 <0>        -0.6047
     21 C14        -2.3393    1.1443   -1.4317 C.3       1 <0>         0.1147
     22 C15        -0.8860    1.6286   -1.4310 C.3       1 <0>        -0.1532
     23 C16        -0.1344    0.9724   -0.2704 C.3       1 <0>         0.1712
     24 C17        -0.7811    1.3823    1.0547 C.3       1 <0>        -0.1574
     25 C18        -2.2330    0.8952    1.0822 C.3       1 <0>         0.0987
     26 N2          1.2642    1.4080   -0.2863 N.am      1 <0>        -0.6219
     27 C19         2.3247    0.4092   -0.4300 C.3       1 <0>         0.1105
     28 C20         3.5892    0.9138    0.2734 C.3       1 <0>        -0.1532
     29 C21         3.9522    2.2871   -0.3015 C.3       1 <0>         0.1079
     30 N3          2.8034    3.1839   -0.1648 N.am      1 <0>        -0.7393
     31 C22         1.5468    2.7145   -0.1743 C.2       1 <0>         0.7113
     32 O4          0.6278    3.5040   -0.0730 O.2       1 <0>        -0.5907
     33 O5         -6.0727    2.6909    1.1940 O.3       1 <0>        -0.5251
     34 H2         -0.8272    4.8976    6.4789 H         1 <0>         0.1408
     35 H3         -2.2004    3.2304    5.3524 H         1 <0>         0.1446
     36 H4         -4.9627    6.2094    4.0856 H         1 <0>         0.1524
     37 H5         -0.4405    7.2649    7.1089 H         1 <0>         0.1445
     38 H6         -3.2103   10.2430    5.8498 H         1 <0>         0.1413
     39 H7         -4.5772    8.5768    4.7158 H         1 <0>         0.1457
     40 H8         -2.8950    3.0427    2.2044 H         1 <0>         0.1521
     41 H9         -4.0516    4.2896    1.6793 H         1 <0>         0.1513
     42 H10        -2.9034    1.6825   -2.1936 H         1 <0>         0.0979
     43 H11        -2.3680    0.0748   -1.6402 H         1 <0>         0.0718
     44 H12        -0.8635    2.7119   -1.3127 H         1 <0>         0.0978
     45 H13        -0.4109    1.3550   -2.3731 H         1 <0>         0.0746
     46 H14        -0.1784   -0.1116   -0.3760 H         1 <0>         0.0903
     47 H15        -0.2314    0.9334    1.8820 H         1 <0>         0.0795
     48 H16        -0.7597    2.4680    1.1495 H         1 <0>         0.0974
     49 H17        -2.7269    1.2690    1.9791 H         1 <0>         0.0874
     50 H18        -2.2530   -0.1946    1.0788 H         1 <0>         0.0817
     51 H19         2.0053   -0.5290    0.0236 H         1 <0>         0.0840
     52 H20         2.5340    0.2498   -1.4877 H         1 <0>         0.0661
     53 H21         3.4020    1.0028    1.3435 H         1 <0>         0.0779
     54 H22         4.4073    0.2142    0.1019 H         1 <0>         0.0983
     55 H23         4.8017    2.6975    0.2443 H         1 <0>         0.0844
     56 H24         4.2105    2.1841   -1.3554 H         1 <0>         0.0654
     57 H25         2.9537    4.1374   -0.0694 H         1 <0>         0.4147
     58 H26        -6.1666    3.5318    0.7258 H         1 <0>         0.3950
@<TRIPOS>BOND
     1    1    6 ar
     2    1    2 ar
     3    1   34 1
     4    2    3 ar
     5    2   35 1
     6    3    4 ar
     7    3   12 1
     8    4    5 ar
     9    4   36 1
    10    5   10 ar
    11    5    6 ar
    12    6    7 ar
    13    7    8 ar
    14    7   37 1
    15    8    9 ar
    16    8   11 1
    17    9   10 ar
    18    9   38 1
    19   10   39 1
    20   12   13 2
    21   12   14 2
    22   12   15 1
    23   15   16 1
    24   15   40 1
    25   15   41 1
    26   16   17 1
    27   16   18 1
    28   16   33 1
    29   18   19 2
    30   18   20 am
    31   20   25 1
    32   20   21 1
    33   21   22 1
    34   21   42 1
    35   21   43 1
    36   22   23 1
    37   22   44 1
    38   22   45 1
    39   23   24 1
    40   23   26 1
    41   23   46 1
    42   24   25 1
    43   24   47 1
    44   24   48 1
    45   25   49 1
    46   25   50 1
    47   26   31 am
    48   26   27 1
    49   27   28 1
    50   27   51 1
    51   27   52 1
    52   28   29 1
    53   28   53 1
    54   28   54 1
    55   29   30 1
    56   29   55 1
    57   29   56 1
    58   30   31 am
    59   30   57 1
    60   31   32 2
    61   33   58 1
@<TRIPOS>MOLECULE
ZINC03807172
   71    73     0     0     0
SMALL
USER_CHARGES

@<TRIPOS>ATOM
      1 C1          0.9385   -1.7701    0.1611 C.3       1 <0>        -0.1485
      2 C2          0.2089   -2.6475    1.1803 C.3       1 <0>        -0.0921
      3 H1          0.2893   -3.6931    0.8828 H         1 <0>         0.0674
      4 C3         -1.2666   -2.2452    1.2359 C.3       1 <0>        -0.1301
      5 C4         -1.3743   -0.7664    1.6209 C.3       1 <0>         0.1066
      6 N1         -0.6421   -0.5499    2.8762 N.am      1 <0>        -0.5960
      7 C5          0.7591   -0.9839    2.9606 C.3       1 <0>         0.0788
      8 H2          1.3682   -0.3864    2.2822 H         1 <0>         0.0615
      9 C6          0.8427   -2.4601    2.5606 C.3       1 <0>        -0.1124
     10 C7          1.2574   -0.8109    4.3722 C.2       1 <0>         0.5048
     11 O1          0.6399   -1.3029    5.3013 O.co2     1 <0>        -0.6486
     12 O2          2.2780   -0.1789    4.5852 O.co2     1 <0>        -0.7077
     13 C8         -1.2442    0.0360    3.9301 C.2       1 <0>         0.4662
     14 O3         -0.6565    0.1347    4.9864 O.2       1 <0>        -0.4237
     15 C9         -2.6475    0.5685    3.7959 C.3       1 <0>         0.1413
     16 H3         -3.2576   -0.1492    3.2475 H         1 <0>         0.0995
     17 C10        -2.6185    1.8974    3.0381 C.3       1 <0>        -0.1163
     18 C11        -4.0510    2.3655    2.7744 C.3       1 <0>        -0.1370
     19 C12        -4.0220    3.6943    2.0166 C.3       1 <0>         0.0907
     20 N2         -5.3937    4.1426    1.7641 N.pl3     1 <0>        -0.6904
     21 C13        -5.6181    5.3150    1.0961 C.cat     1 <0>         0.7396
     22 N3         -6.8652    5.7225    0.8666 N.pl3     1 <0>        -0.7983
     23 N4         -4.5894    6.0490    0.6752 N.pl3     1 <0>        -0.7927
     24 N5         -3.2196    0.7785    5.1281 N.pl3     1 <0>        -1.0973
     25 S1         -4.1335   -0.4088    5.8333 S.o2      1 <0>         2.6831
     26 O4         -3.3907   -1.6148    5.7192 O.2       1 <0>        -0.9257
     27 O5         -4.5676    0.1029    7.0859 O.2       1 <0>        -0.9569
     28 C14        -5.5776   -0.6113    4.8443 C.ar      1 <0>        -0.7427
     29 C15        -5.7736   -1.7832    4.1411 C.ar      1 <0>         0.0208
     30 C16        -6.9075   -1.9406    3.3657 C.ar      1 <0>        -0.1843
     31 C17        -7.8454   -0.9286    3.2939 C.ar      1 <0>        -0.0247
     32 C18        -7.6570    0.2497    3.9962 C.ar      1 <0>        -0.1780
     33 C19        -6.5220    0.4068    4.7769 C.ar      1 <0>         0.3092
     34 N6         -6.3034    1.5875    5.4951 N.pl3     1 <0>        -0.7471
     35 C20        -7.4164    2.5312    5.6665 C.3       1 <0>         0.1214
     36 C21        -8.1197    2.6779    4.3108 C.3       1 <0>        -0.1017
     37 H4         -7.3994    3.0000    3.5587 H         1 <0>         0.0599
     38 C22        -8.7012    1.3305    3.8995 C.3       1 <0>        -0.0677
     39 C23        -9.2402    3.7136    4.4240 C.3       1 <0>        -0.1512
     40 H5          1.9893   -2.0568    0.1210 H         1 <0>         0.0548
     41 H6          0.4876   -1.9039   -0.8222 H         1 <0>         0.0474
     42 H7          0.8582   -0.7245    0.4584 H         1 <0>         0.0583
     43 H8         -1.7232   -2.4009    0.2585 H         1 <0>         0.0662
     44 H9         -1.7817   -2.8532    1.9796 H         1 <0>         0.0686
     45 H10        -0.9392   -0.1511    0.8333 H         1 <0>         0.0624
     46 H11        -2.4223   -0.5000    1.7585 H         1 <0>         0.0666
     47 H12         0.3077   -3.0660    3.2919 H         1 <0>         0.0708
     48 H13         1.8875   -2.7687    2.5262 H         1 <0>         0.0656
     49 H14        -2.0961    2.6448    3.6352 H         1 <0>         0.0895
     50 H15        -2.0996    1.7631    2.0889 H         1 <0>         0.0927
     51 H16        -4.5734    1.6181    2.1773 H         1 <0>         0.0854
     52 H17        -4.5699    2.4998    3.7235 H         1 <0>         0.0850
     53 H18        -3.4996    4.4418    2.6137 H         1 <0>         0.0965
     54 H19        -3.5031    3.5601    1.0675 H         1 <0>         0.0969
     55 H20        -6.1428    3.6080    2.0707 H         1 <0>         0.4327
     56 H21        -7.6143    5.1880    1.1731 H         1 <0>         0.4391
     57 H22        -3.6812    5.7522    0.8423 H         1 <0>         0.4415
     58 H23        -4.7485    6.8804    0.2015 H         1 <0>         0.4392
     59 H24        -3.0631    1.6130    5.5971 H         1 <0>         0.4177
     60 H25        -5.0420   -2.5758    4.1964 H         1 <0>         0.1452
     61 H26        -7.0602   -2.8567    2.8144 H         1 <0>         0.1315
     62 H27        -8.7294   -1.0570    2.6870 H         1 <0>         0.1275
     63 H28        -5.4314    1.7798    5.8740 H         1 <0>         0.4020
     64 H29        -8.1176    2.1446    6.4061 H         1 <0>         0.0714
     65 H30        -7.0334    3.4989    5.9903 H         1 <0>         0.0864
     66 H31        -9.0704    1.3842    2.8753 H         1 <0>         0.0771
     67 H32        -9.5300    1.0914    4.5659 H         1 <0>         0.0773
     68 H33        -8.8185    4.6743    4.7194 H         1 <0>         0.0590
     69 H34        -9.7386    3.8165    3.4601 H         1 <0>         0.0600
     70 H35        -9.9618    3.3877    5.1732 H         1 <0>         0.0664
     71 H36        -7.0243    6.5539    0.3929 H         1 <0>         0.4396
@<TRIPOS>BOND
     1    1    2 1
     2    1   40 1
     3    1   41 1
     4    1   42 1
     5    2    3 1
     6    2    9 1
     7    2    4 1
     8    4    5 1
     9    4   43 1
    10    4   44 1
    11    5    6 1
    12    5   45 1
    13    5   46 1
    14    6    7 1
    15    6   13 am
    16    7    8 1
    17    7    9 1
    18    7   10 1
    19    9   47 1
    20    9   48 1
    21   10   11 2
    22   10   12 1
    23   13   14 2
    24   13   15 1
    25   15   16 1
    26   15   17 1
    27   15   24 1
    28   17   18 1
    29   17   49 1
    30   17   50 1
    31   18   19 1
    32   18   51 1
    33   18   52 1
    34   19   20 1
    35   19   53 1
    36   19   54 1
    37   20   21 1
    38   20   55 1
    39   21   22 2
    40   21   23 1
    41   22   56 1
    42   22   71 1
    43   23   57 1
    44   23   58 1
    45   24   25 1
    46   24   59 1
    47   25   26 2
    48   25   27 2
    49   25   28 1
    50   28   33 ar
    51   28   29 ar
    52   29   30 ar
    53   29   60 1
    54   30   31 ar
    55   30   61 1
    56   31   32 ar
    57   31   62 1
    58   32   38 1
    59   32   33 ar
    60   33   34 1
    61   34   35 1
    62   34   63 1
    63   35   36 1
    64   35   64 1
    65   35   65 1
    66   36   37 1
    67   36   38 1
    68   36   39 1
    69   38   66 1
    70   38   67 1
    71   39   68 1
    72   39   69 1
    73   39   70 1
@<TRIPOS>MOLECULE
ZINC03917722
   71    73     0     0     0
SMALL
USER_CHARGES

@<TRIPOS>ATOM
      1 C1          1.0040   -1.4893    0.2091 C.3       1 <0>        -0.1484
      2 C2          0.2597   -2.4151    1.1733 C.3       1 <0>        -0.0921
      3 H1          0.3366   -3.4438    0.8212 H         1 <0>         0.0674
      4 C3         -1.2139   -2.0068    1.2369 C.3       1 <0>        -0.1301
      5 C4         -1.3165   -0.5499    1.6992 C.3       1 <0>         0.1068
      6 N1         -0.5949   -0.4055    2.9709 N.am      1 <0>        -0.5960
      7 C5          0.8028   -0.8523    3.0448 C.3       1 <0>         0.0787
      8 H2          1.4218   -0.2235    2.4049 H         1 <0>         0.0615
      9 C6          0.8814   -2.3056    2.5674 C.3       1 <0>        -0.1124
     10 C7          1.2888   -0.7580    4.4682 C.2       1 <0>         0.5051
     11 O1          0.6607   -1.2965    5.3637 O.co2     1 <0>        -0.6489
     12 O2          2.3101   -0.1432    4.7242 O.co2     1 <0>        -0.7077
     13 C8         -1.2034    0.1273    4.0491 C.2       1 <0>         0.4664
     14 O3         -0.6265    0.1624    5.1153 O.2       1 <0>        -0.4246
     15 C9         -2.6005    0.6793    3.9297 C.3       1 <0>         0.1423
     16 H3         -3.2080    0.0036    3.3276 H         1 <0>         0.0992
     17 C10        -2.5503    2.0539    3.2596 C.3       1 <0>        -0.1151
     18 C11        -3.9751    2.5469    2.9995 C.3       1 <0>        -0.1388
     19 C12        -3.9249    3.9214    2.3294 C.3       1 <0>         0.0907
     20 N2         -5.2892    4.3935    2.0804 N.pl3     1 <0>        -0.6907
     21 C13        -5.4948    5.6077    1.4851 C.cat     1 <0>         0.7398
     22 N3         -6.7352    6.0369    1.2587 N.pl3     1 <0>        -0.7984
     23 N4         -4.4546    6.3608    1.1317 N.pl3     1 <0>        -0.7926
     24 N5         -3.1904    0.8080    5.2645 N.pl3     1 <0>        -1.0930
     25 S1         -4.1318   -0.4101    5.8747 S.o2      1 <0>         2.6870
     26 O4         -3.4145   -1.6195    5.6691 O.2       1 <0>        -0.9265
     27 O5         -4.5588    0.0128    7.1623 O.2       1 <0>        -0.9623
     28 C14        -5.5767   -0.5047    4.8708 C.ar      1 <0>        -0.7431
     29 C15        -5.8178   -1.6334    4.1130 C.ar      1 <0>         0.0215
     30 C16        -6.9520   -1.7058    3.3256 C.ar      1 <0>        -0.1843
     31 C17        -7.8434   -0.6506    3.2934 C.ar      1 <0>        -0.0243
     32 C18        -7.6087    0.4855    4.0491 C.ar      1 <0>        -0.1799
     33 C19        -6.4764    0.5550    4.8464 C.ar      1 <0>         0.3101
     34 N6         -6.2208    1.6841    5.6323 N.pl3     1 <0>        -0.7523
     35 C20        -6.9948    2.9090    5.3890 C.3       1 <0>         0.1292
     36 C21        -8.4673    2.5090    5.2284 C.3       1 <0>        -0.1179
     37 H4         -8.7966    1.9652    6.1138 H         1 <0>         0.0877
     38 C22        -8.5977    1.6194    3.9865 C.3       1 <0>        -0.0603
     39 C23        -9.3230    3.7648    5.0505 C.3       1 <0>        -0.1432
     40 H5          2.0534   -1.7802    0.1633 H         1 <0>         0.0547
     41 H6          0.5616   -1.5675   -0.7840 H         1 <0>         0.0474
     42 H7          0.9272   -0.4605    0.5610 H         1 <0>         0.0583
     43 H8         -1.6622   -2.1072    0.2484 H         1 <0>         0.0661
     44 H9         -1.7396   -2.6503    1.9424 H         1 <0>         0.0688
     45 H10        -0.8703    0.1036    0.9496 H         1 <0>         0.0623
     46 H11        -2.3641   -0.2846    1.8414 H         1 <0>         0.0666
     47 H12         0.3360   -2.9462    3.2604 H         1 <0>         0.0708
     48 H13         1.9247   -2.6187    2.5261 H         1 <0>         0.0655
     49 H14        -2.0357    2.7582    3.9133 H         1 <0>         0.0889
     50 H15        -2.0139    1.9776    2.3137 H         1 <0>         0.0918
     51 H16        -4.4896    1.8426    2.3458 H         1 <0>         0.0846
     52 H17        -4.5115    2.6231    3.9454 H         1 <0>         0.0884
     53 H18        -3.4103    4.6257    2.9831 H         1 <0>         0.0965
     54 H19        -3.3885    3.8451    1.3836 H         1 <0>         0.0965
     55 H20        -6.0467    3.8450    2.3378 H         1 <0>         0.4331
     56 H21        -7.4928    5.4884    1.5160 H         1 <0>         0.4391
     57 H22        -3.5513    6.0483    1.2966 H         1 <0>         0.4415
     58 H23        -4.6004    7.2219    0.7096 H         1 <0>         0.4393
     59 H24        -3.0297    1.6068    5.7908 H         1 <0>         0.4185
     60 H25        -5.1212   -2.4584    4.1351 H         1 <0>         0.1452
     61 H26        -7.1414   -2.5893    2.7339 H         1 <0>         0.1315
     62 H27        -8.7272   -0.7122    2.6757 H         1 <0>         0.1273
     63 H28        -5.5438    1.6584    6.3265 H         1 <0>         0.4111
     64 H29        -6.8868    3.5880    6.2348 H         1 <0>         0.0877
     65 H30        -6.6425    3.3935    4.4784 H         1 <0>         0.0494
     66 H31        -8.4158    2.2069    3.0866 H         1 <0>         0.0659
     67 H32        -9.6088    1.2140    3.9501 H         1 <0>         0.0785
     68 H33        -8.9953    4.3050    4.1623 H         1 <0>         0.0488
     69 H34       -10.3687    3.4788    4.9366 H         1 <0>         0.0641
     70 H35        -9.2148    4.4053    5.9258 H         1 <0>         0.0616
     71 H36        -6.8810    6.8979    0.8365 H         1 <0>         0.4396
@<TRIPOS>BOND
     1    1    2 1
     2    1   40 1
     3    1   41 1
     4    1   42 1
     5    2    3 1
     6    2    9 1
     7    2    4 1
     8    4    5 1
     9    4   43 1
    10    4   44 1
    11    5    6 1
    12    5   45 1
    13    5   46 1
    14    6    7 1
    15    6   13 am
    16    7    8 1
    17    7    9 1
    18    7   10 1
    19    9   47 1
    20    9   48 1
    21   10   11 2
    22   10   12 1
    23   13   14 2
    24   13   15 1
    25   15   16 1
    26   15   17 1
    27   15   24 1
    28   17   18 1
    29   17   49 1
    30   17   50 1
    31   18   19 1
    32   18   51 1
    33   18   52 1
    34   19   20 1
    35   19   53 1
    36   19   54 1
    37   20   21 1
    38   20   55 1
    39   21   22 2
    40   21   23 1
    41   22   56 1
    42   22   71 1
    43   23   57 1
    44   23   58 1
    45   24   25 1
    46   24   59 1
    47   25   26 2
    48   25   27 2
    49   25   28 1
    50   28   33 ar
    51   28   29 ar
    52   29   30 ar
    53   29   60 1
    54   30   31 ar
    55   30   61 1
    56   31   32 ar
    57   31   62 1
    58   32   38 1
    59   32   33 ar
    60   33   34 1
    61   34   35 1
    62   34   63 1
    63   35   36 1
    64   35   64 1
    65   35   65 1
    66   36   37 1
    67   36   38 1
    68   36   39 1
    69   38   66 1
    70   38   67 1
    71   39   68 1
    72   39   69 1
    73   39   70 1
@<TRIPOS>MOLECULE
ZINC03778392
   49    52     0     0     0
SMALL
USER_CHARGES
(6-amidino-2-naphthyl) 4-(4,5-dihydro-1H-imidazol-2-ylamino)benzoate
@<TRIPOS>ATOM
      1 C1          6.7793    2.0604   -3.5073 C.ar      1 <0>        -0.0034
      2 C2          5.8742    1.0705   -3.8148 C.ar      1 <0>        -0.1339
      3 C3          4.5223    1.3764   -3.9418 C.ar      1 <0>         0.1718
      4 C4          4.0818    2.6848   -3.7646 C.ar      1 <0>        -0.2022
      5 C5          4.9807    3.6788   -3.4517 C.ar      1 <0>        -0.0129
      6 C6          6.3396    3.3750   -3.3228 C.ar      1 <0>        -0.1277
      7 C7          7.3062    4.4380   -2.9929 C.2       1 <0>         0.5084
      8 O1          8.4867    4.1723   -2.8808 O.2       1 <0>        -0.4673
      9 O2          6.8806    5.7044   -2.8154 O.3       1 <0>        -0.2880
     10 C8          7.8330    6.6536   -2.6208 C.ar      1 <0>         0.1249
     11 C9          8.7272    6.9579   -3.6527 C.ar      1 <0>        -0.1157
     12 C10         9.6870    7.9062   -3.4875 C.ar      1 <0>        -0.0687
     13 C11         9.7953    8.5880   -2.2616 C.ar      1 <0>        -0.0652
     14 C12        10.7803    9.5671   -2.0639 C.ar      1 <0>        -0.0147
     15 C13        10.8590   10.2182   -0.8453 C.ar      1 <0>        -0.1474
     16 C14         9.9619    9.9055    0.1908 C.ar      1 <0>        -0.0859
     17 C15         9.0024    8.9609    0.0189 C.ar      1 <0>        -0.0780
     18 C16         8.8958    8.2811   -1.2087 C.ar      1 <0>        -0.0006
     19 C17         7.9109    7.3008   -1.4087 C.ar      1 <0>        -0.1097
     20 C18        11.8957   11.2522   -0.6314 C.cat     1 <0>         0.5982
     21 N1         11.9791   11.9041    0.5800 N.pl3     1 <0>        -0.7768
     22 N2          3.6088    0.3718   -4.2528 N.pl3     1 <0>        -0.6321
     23 C19         2.2925    0.4944   -3.8666 C.cat     1 <0>         0.7162
     24 C20         0.4249    1.3158   -2.8800 C.3       1 <0>         0.0664
     25 C21         0.0419    0.0445   -3.6635 C.3       1 <0>         0.0824
     26 N3          1.3220   -0.3920   -4.2458 N.pl3     1 <0>        -0.6815
     27 H1          7.8281    1.8222   -3.4082 H         1 <0>         0.1607
     28 H2          6.2131    0.0551   -3.9574 H         1 <0>         0.1561
     29 H3          3.0327    2.9194   -3.8682 H         1 <0>         0.1479
     30 H4          4.6377    4.6929   -3.3100 H         1 <0>         0.1591
     31 H5          8.6515    6.4350   -4.5945 H         1 <0>         0.1417
     32 H6         10.3676    8.1332   -4.2947 H         1 <0>         0.1498
     33 H7         11.4717    9.8113   -2.8569 H         1 <0>         0.1444
     34 H8         10.0376   10.4230    1.1356 H         1 <0>         0.1399
     35 H9          8.3201    8.7317    0.8240 H         1 <0>         0.1525
     36 H10         7.2186    7.0565   -0.6166 H         1 <0>         0.1524
     37 H11        13.4438   12.2095   -1.5444 H         1 <0>         0.4467
     38 H12        11.3583   11.6850    1.2924 H         1 <0>         0.4437
     39 H13        12.6586   12.5819    0.7203 H         1 <0>         0.4329
     40 H14         3.8998   -0.4140   -4.7413 H         1 <0>         0.4478
     41 H15         0.2217    1.1897   -1.8165 H         1 <0>         0.1269
     42 H16        -0.1123    2.1799   -3.2707 H         1 <0>         0.1273
     43 H17        -0.6784    0.2763   -4.4480 H         1 <0>         0.1239
     44 H18        -0.3531   -0.7157   -2.9897 H         1 <0>         0.1231
     45 H19         1.4538   -1.1726   -4.8063 H         1 <0>         0.4568
     46 N4         12.7126   11.5050   -1.6430 N.pl3     1 <0>        -0.7603
     47 H20        12.6098   10.9919   -2.5264 H         1 <0>         0.4588
     48 N5          1.8710    1.4602   -3.1139 N.pl3     1 <0>        -0.6593
     49 H21         2.4576    2.2137   -2.7367 H         1 <0>         0.4710
@<TRIPOS>BOND
     1    1    6 ar
     2    1    2 ar
     3    1   27 1
     4    2    3 ar
     5    2   28 1
     6    3    4 ar
     7    3   22 1
     8    4    5 ar
     9    4   29 1
    10    5    6 ar
    11    5   30 1
    12    6    7 1
    13    7    8 2
    14    7    9 1
    15    9   10 1
    16   10   19 ar
    17   10   11 ar
    18   11   12 ar
    19   11   31 1
    20   12   13 ar
    21   12   32 1
    22   13   18 ar
    23   13   14 ar
    24   14   15 ar
    25   14   33 1
    26   15   16 ar
    27   15   20 1
    28   16   17 ar
    29   16   34 1
    30   17   18 ar
    31   17   35 1
    32   18   19 ar
    33   19   36 1
    34   20   21 1
    35   20   46 2
    36   21   38 1
    37   21   39 1
    38   22   23 1
    39   22   40 1
    40   23   26 1
    41   23   48 2
    42   24   25 1
    43   24   41 1
    44   24   42 1
    45   24   48 1
    46   25   26 1
    47   25   43 1
    48   25   44 1
    49   26   45 1
    50   37   46 1
    51   46   47 1
    52   48   49 1
@<TRIPOS>MOLECULE
ZINC64527030
   66    69     0     0     0
SMALL
USER_CHARGES

@<TRIPOS>ATOM
      1 C1         -0.9195    1.1543    0.1864 C.3       1 <0>        -0.1346
      2 C2          0.0610    0.0003   -0.0321 C.3       1 <0>         0.1396
      3 C3          0.8942   -0.1927    1.2087 C.ar      1 <0>        -0.0756
      4 C4          0.3154   -0.7361    2.3470 C.ar      1 <0>        -0.0387
      5 C5          1.0625   -0.9198    3.4909 C.ar      1 <0>        -0.1395
      6 C6          2.4029   -0.5585    3.5022 C.ar      1 <0>         0.0665
      7 C7          2.9885   -0.0089    2.3493 C.ar      1 <0>         0.0304
      8 C8          2.2128    0.1637    1.1998 C.ar      1 <0>        -0.0171
      9 N1          4.2886    0.2440    2.6483 N.2       1 <0>        -0.4467
     10 C9          4.5308   -0.1061    3.8778 C.2       1 <0>         0.2185
     11 N2          3.4039   -0.6073    4.4517 N.pl3     1 <0>        -0.4885
     12 C10         3.2761   -1.1058    5.8234 C.3       1 <0>         0.0792
     13 C11         5.8654    0.0241    4.5656 C.3       1 <0>         0.2003
     14 N3          5.9531    1.3330    5.2176 N.pl3     1 <0>        -0.7045
     15 C12         7.1008    1.6843    5.9208 C.ar      1 <0>         0.2924
     16 C13         8.1673    0.7934    5.9992 C.ar      1 <0>        -0.2015
     17 C14         9.3044    1.1385    6.6939 C.ar      1 <0>         0.0004
     18 C15         9.3873    2.3844    7.3208 C.ar      1 <0>        -0.2356
     19 C16         8.3151    3.2767    7.2404 C.ar      1 <0>        -0.0028
     20 C17         7.1826    2.9283    6.5398 C.ar      1 <0>        -0.1949
     21 C18        10.6057    2.7573    8.0673 C.cat     1 <0>         0.6039
     22 N4         10.6835    3.9461    8.6647 N.pl3     1 <0>        -0.7751
     23 N5         11.6276    1.9051    8.1435 N.pl3     1 <0>        -0.7748
     24 C19        -0.7072   -1.2632   -0.3229 C.2       1 <0>         0.5134
     25 O1         -0.8231   -2.1133    0.5343 O.2       1 <0>        -0.5415
     26 N6         -1.2653   -1.4485   -1.5356 N.am      1 <0>        -0.6138
     27 C20        -1.1493   -0.5341   -2.6810 C.3       1 <0>         0.0756
     28 C21        -1.9690   -1.1429   -3.8382 C.3       1 <0>        -0.1304
     29 C22        -2.9632   -2.0808   -3.1039 C.3       1 <0>        -0.1317
     30 C23        -2.0879   -2.6048   -1.9353 C.3       1 <0>         0.1041
     31 N7          0.9389    0.3120   -1.1679 N.3       1 <0>        -0.6490
     32 C24         1.7575   -0.8512   -1.5353 C.3       1 <0>        -0.0195
     33 C25         2.6431   -0.4941   -2.7012 C.2       1 <0>         0.4965
     34 O2          2.5966    0.6255   -3.1815 O.co2     1 <0>        -0.6812
     35 O3          3.4060   -1.3249   -3.1641 O.co2     1 <0>        -0.6999
     36 H1         -0.3723    2.0394    0.5108 H         1 <0>         0.0797
     37 H2         -1.4398    1.3706   -0.7467 H         1 <0>         0.0650
     38 H3         -1.6448    0.8751    0.9506 H         1 <0>         0.0639
     39 H4         -0.7274   -1.0166    2.3367 H         1 <0>         0.1397
     40 H5          0.6070   -1.3424    4.3743 H         1 <0>         0.1201
     41 H6          2.6542    0.5819    0.3072 H         1 <0>         0.1564
     42 H7          3.5008   -2.1722    5.8448 H         1 <0>         0.0750
     43 H8          3.9744   -0.5742    6.4697 H         1 <0>         0.0799
     44 H9          2.2578   -0.9420    6.1761 H         1 <0>         0.0867
     45 H10         5.9668   -0.7621    5.3138 H         1 <0>         0.0921
     46 H11         6.6640   -0.0695    3.8297 H         1 <0>         0.1103
     47 H12         5.2108    1.9548    5.1590 H         1 <0>         0.4164
     48 H13         8.1025   -0.1697    5.5147 H         1 <0>         0.1461
     49 H14        10.1315    0.4467    6.7547 H         1 <0>         0.1344
     50 H15         8.3764    4.2403    7.7243 H         1 <0>         0.1339
     51 H16         6.3553    3.6194    6.4736 H         1 <0>         0.1443
     52 H17         9.9398    4.5664    8.6093 H         1 <0>         0.4412
     53 H18        11.5710    1.0399    7.7087 H         1 <0>         0.4415
     54 H19        12.4279    2.1500    8.6338 H         1 <0>         0.4284
     55 H20        -1.5511    0.4440   -2.4166 H         1 <0>         0.0733
     56 H21        -0.1042   -0.4404   -2.9762 H         1 <0>         0.0920
     57 H22        -2.5036   -0.3649   -4.3832 H         1 <0>         0.0846
     58 H23        -1.3254   -1.7123   -4.5088 H         1 <0>         0.0805
     59 H24        -3.8239   -1.5243   -2.7328 H         1 <0>         0.0750
     60 H25        -3.2787   -2.8993   -3.7509 H         1 <0>         0.0836
     61 H26        -1.4526   -3.4241   -2.2718 H         1 <0>         0.0673
     62 H27        -2.7171   -2.9276   -1.1057 H         1 <0>         0.0760
     63 H28         0.4049    0.6423   -1.9577 H         1 <0>         0.3559
     64 H29         2.3751   -1.1436   -0.6861 H         1 <0>         0.0733
     65 H30         1.1067   -1.6800   -1.8138 H         1 <0>         0.0314
     66 H31        11.4838    4.1911    9.1551 H         1 <0>         0.4283
@<TRIPOS>BOND
     1    1    2 1
     2    1   36 1
     3    1   37 1
     4    1   38 1
     5    2    3 1
     6    2   24 1
     7    2   31 1
     8    3    8 ar
     9    3    4 ar
    10    4    5 ar
    11    4   39 1
    12    5    6 ar
    13    5   40 1
    14    6   11 1
    15    6    7 ar
    16    7    8 ar
    17    7    9 1
    18    8   41 1
    19    9   10 2
    20   10   11 1
    21   10   13 1
    22   11   12 1
    23   12   42 1
    24   12   43 1
    25   12   44 1
    26   13   14 1
    27   13   45 1
    28   13   46 1
    29   14   15 1
    30   14   47 1
    31   15   20 ar
    32   15   16 ar
    33   16   17 ar
    34   16   48 1
    35   17   18 ar
    36   17   49 1
    37   18   19 ar
    38   18   21 1
    39   19   20 ar
    40   19   50 1
    41   20   51 1
    42   21   22 2
    43   21   23 1
    44   22   52 1
    45   22   66 1
    46   23   53 1
    47   23   54 1
    48   24   25 2
    49   24   26 am
    50   26   30 1
    51   26   27 1
    52   27   28 1
    53   27   55 1
    54   27   56 1
    55   28   29 1
    56   28   57 1
    57   28   58 1
    58   29   30 1
    59   29   59 1
    60   29   60 1
    61   30   61 1
    62   30   62 1
    63   31   32 1
    64   31   63 1
    65   32   33 1
    66   32   64 1
    67   32   65 1
    68   33   34 2
    69   33   35 1
@<TRIPOS>MOLECULE
ZINC64527030
   67    70     0     0     0
SMALL
USER_CHARGES

@<TRIPOS>ATOM
      1 C1         -0.9195    1.1543    0.1864 C.3       1 <0>        -0.1399
      2 C2          0.0610    0.0003   -0.0321 C.3       1 <0>         0.1259
      3 C3          0.8942   -0.1927    1.2087 C.ar      1 <0>        -0.0158
      4 C4          0.3154   -0.7361    2.3470 C.ar      1 <0>        -0.0147
      5 C5          1.0625   -0.9198    3.4909 C.ar      1 <0>        -0.1084
      6 C6          2.4029   -0.5585    3.5022 C.ar      1 <0>         0.0835
      7 C7          2.9885   -0.0089    2.3493 C.ar      1 <0>         0.0428
      8 C8          2.2128    0.1637    1.1998 C.ar      1 <0>        -0.0444
      9 N1          4.2886    0.2440    2.6483 N.pl3     1 <0>        -0.4610
     10 C9          4.5308   -0.1061    3.8778 C.cat     1 <0>         0.3294
     11 N2          3.4039   -0.6073    4.4517 N.pl3     1 <0>        -0.4128
     12 C10         3.2761   -1.1058    5.8234 C.3       1 <0>         0.0580
     13 C11         5.8654    0.0241    4.5656 C.3       1 <0>         0.1699
     14 N3          5.9072    1.2814    5.3164 N.pl3     1 <0>        -0.7312
     15 C12         7.0465    1.6232    6.0377 C.ar      1 <0>         0.2765
     16 C13         8.1481    0.7723    6.0406 C.ar      1 <0>        -0.1953
     17 C14         9.2768    1.1081    6.7531 C.ar      1 <0>        -0.0019
     18 C15         9.3162    2.3044    7.4739 C.ar      1 <0>        -0.2107
     19 C16         8.2089    3.1565    7.4692 C.ar      1 <0>        -0.0044
     20 C17         7.0848    2.8180    6.7506 C.ar      1 <0>        -0.1813
     21 C18        10.5257    2.6672    8.2397 C.cat     1 <0>         0.6023
     22 N4         10.5618    3.8086    8.9268 N.pl3     1 <0>        -0.7672
     23 N5         11.5810    1.8533    8.2437 N.pl3     1 <0>        -0.7673
     24 C19        -0.7072   -1.2632   -0.3229 C.2       1 <0>         0.5127
     25 O1         -0.8231   -2.1133    0.5343 O.2       1 <0>        -0.5466
     26 N6         -1.2653   -1.4485   -1.5356 N.am      1 <0>        -0.6066
     27 C20        -1.1493   -0.5341   -2.6810 C.3       1 <0>         0.0729
     28 C21        -1.9690   -1.1429   -3.8382 C.3       1 <0>        -0.1313
     29 C22        -2.9632   -2.0808   -3.1039 C.3       1 <0>        -0.1328
     30 C23        -2.0879   -2.6048   -1.9353 C.3       1 <0>         0.1032
     31 N7          0.9389    0.3120   -1.1679 N.3       1 <0>        -0.6529
     32 C24         1.7575   -0.8512   -1.5353 C.3       1 <0>        -0.0252
     33 C25         2.6431   -0.4941   -2.7012 C.2       1 <0>         0.4925
     34 O2          2.5966    0.6255   -3.1815 O.co2     1 <0>        -0.6756
     35 O3          3.4060   -1.3249   -3.1641 O.co2     1 <0>        -0.6923
     36 H1         -0.3723    2.0394    0.5108 H         1 <0>         0.0825
     37 H2         -1.4398    1.3706   -0.7467 H         1 <0>         0.0762
     38 H3         -1.6448    0.8751    0.9506 H         1 <0>         0.0702
     39 H4         -0.7274   -1.0166    2.3367 H         1 <0>         0.1655
     40 H5          0.6070   -1.3424    4.3743 H         1 <0>         0.1514
     41 H6          2.6542    0.5819    0.3072 H         1 <0>         0.1780
     42 H7          3.5012   -2.1721    5.8449 H         1 <0>         0.1097
     43 H8          3.9741   -0.5739    6.4698 H         1 <0>         0.1063
     44 H9          2.2577   -0.9424    6.1759 H         1 <0>         0.1181
     45 H10         6.0045   -0.8127    5.2501 H         1 <0>         0.1267
     46 H11         6.6604    0.0196    3.8199 H         1 <0>         0.1277
     47 H12         5.1405    1.8755    5.3105 H         1 <0>         0.4181
     48 H13         8.1169   -0.1524    5.4835 H         1 <0>         0.1465
     49 H14        10.1312    0.4474    6.7552 H         1 <0>         0.1407
     50 H15         8.2365    4.0816    8.0257 H         1 <0>         0.1407
     51 H16         6.2303    3.4784    6.7429 H         1 <0>         0.1479
     52 H17         9.7938    4.4010    8.9239 H         1 <0>         0.4426
     53 H18        11.5547    1.0225    7.7436 H         1 <0>         0.4424
     54 H19        12.3754    2.0916    8.7467 H         1 <0>         0.4333
     55 H20        -1.5511    0.4440   -2.4166 H         1 <0>         0.0761
     56 H21        -0.1042   -0.4404   -2.9762 H         1 <0>         0.0920
     57 H22        -2.5036   -0.3649   -4.3832 H         1 <0>         0.0886
     58 H23        -1.3254   -1.7123   -4.5088 H         1 <0>         0.0830
     59 H24        -3.8239   -1.5243   -2.7328 H         1 <0>         0.0777
     60 H25        -3.2787   -2.8993   -3.7509 H         1 <0>         0.0884
     61 H26        -1.4526   -3.4241   -2.2718 H         1 <0>         0.0718
     62 H27        -2.7171   -2.9276   -1.1057 H         1 <0>         0.0799
     63 H28         0.4049    0.6423   -1.9577 H         1 <0>         0.3671
     64 H29         2.3751   -1.1436   -0.6861 H         1 <0>         0.0655
     65 H30         1.1067   -1.6800   -1.8138 H         1 <0>         0.0395
     66 H31        11.3563    4.0469    9.4298 H         1 <0>         0.4332
     67 H32         4.9381    0.6271    2.0381 H         1 <0>         0.4628
@<TRIPOS>BOND
     1    1    2 1
     2    1   36 1
     3    1   37 1
     4    1   38 1
     5    2    3 1
     6    2   24 1
     7    2   31 1
     8    3    8 ar
     9    3    4 ar
    10    4    5 ar
    11    4   39 1
    12    5    6 ar
    13    5   40 1
    14    6   11 1
    15    6    7 ar
    16    7    8 ar
    17    7    9 1
    18    8   41 1
    19    9   10 2
    20    9   67 1
    21   10   11 1
    22   10   13 1
    23   11   12 1
    24   12   42 1
    25   12   43 1
    26   12   44 1
    27   13   14 1
    28   13   45 1
    29   13   46 1
    30   14   15 1
    31   14   47 1
    32   15   20 ar
    33   15   16 ar
    34   16   17 ar
    35   16   48 1
    36   17   18 ar
    37   17   49 1
    38   18   19 ar
    39   18   21 1
    40   19   20 ar
    41   19   50 1
    42   20   51 1
    43   21   22 2
    44   21   23 1
    45   22   52 1
    46   22   66 1
    47   23   53 1
    48   23   54 1
    49   24   25 2
    50   24   26 am
    51   26   30 1
    52   26   27 1
    53   27   28 1
    54   27   55 1
    55   27   56 1
    56   28   29 1
    57   28   57 1
    58   28   58 1
    59   29   30 1
    60   29   59 1
    61   29   60 1
    62   30   61 1
    63   30   62 1
    64   31   32 1
    65   31   63 1
    66   32   33 1
    67   32   64 1
    68   32   65 1
    69   33   34 2
    70   33   35 1
@<TRIPOS>MOLECULE
ZINC02003646
   53    56     0     0     0
SMALL
USER_CHARGES

@<TRIPOS>ATOM
      1 C1          1.2474    1.3576    1.1081 C.ar      1 <0>        -0.0578
      2 C2          0.5264    2.1037    0.1929 C.ar      1 <0>        -0.1354
      3 C3         -0.0411    1.4933   -0.9108 C.ar      1 <0>        -0.0160
      4 C4          0.1097    0.1351   -1.1053 C.ar      1 <0>        -0.6646
      5 C5          0.8352   -0.6212   -0.1870 C.ar      1 <0>         0.0545
      6 C6          1.4046   -0.0009    0.9238 C.ar      1 <0>        -0.1261
      7 C7          1.0003   -2.0814   -0.3903 C.ar      1 <0>        -0.1289
      8 C8          2.2659   -2.6140   -0.6308 C.ar      1 <0>        -0.0687
      9 C9          2.4170   -3.9712   -0.8195 C.ar      1 <0>        -0.1515
     10 C10         1.3086   -4.8084   -0.7701 C.ar      1 <0>         0.1581
     11 C11         0.0457   -4.2795   -0.5309 C.ar      1 <0>        -0.1195
     12 C12        -0.1092   -2.9236   -0.3354 C.ar      1 <0>        -0.0284
     13 N1          1.4641   -6.1841   -0.9617 N.am      1 <0>        -0.6650
     14 C13         0.6690   -7.0503   -0.3030 C.2       1 <0>         0.5918
     15 O1         -0.1157   -6.6416    0.5316 O.2       1 <0>        -0.5087
     16 C14         0.7504   -8.4916   -0.5938 C.2       1 <0>        -0.2964
     17 C15         1.6500   -9.1066   -1.4143 C.2       1 <0>         0.1198
     18 O2          1.3919  -10.4170   -1.4113 O.3       1 <0>        -0.0544
     19 N2          0.2902  -10.6785   -0.5650 N.2       1 <0>        -0.2875
     20 C16        -0.1186   -9.5466   -0.0506 C.2       1 <0>         0.1802
     21 C17        -1.2458   -9.3623    0.8959 C.ar      1 <0>        -0.0283
     22 C18        -2.1513   -8.3179    0.7091 C.ar      1 <0>         0.0143
     23 C19        -3.2015   -8.1445    1.5890 C.ar      1 <0>        -0.1105
     24 C20        -3.3626   -9.0031    2.6584 C.ar      1 <0>        -0.0407
     25 C21        -2.4631  -10.0519    2.8559 C.ar      1 <0>        -0.1647
     26 C22        -1.4050  -10.2343    1.9680 C.ar      1 <0>        -0.0292
     27 C23        -2.6361  -10.9713    4.0026 C.cat     1 <0>         0.6054
     28 N3         -3.1959  -10.5334    5.1284 N.pl3     1 <0>        -0.7574
     29 N4         -2.2320  -12.2364    3.9083 N.pl3     1 <0>        -0.7586
     30 S1         -0.6144   -0.6410   -2.5117 S.o2      1 <0>         2.6976
     31 O3         -1.3745   -1.7380   -2.0238 O.2       1 <0>        -0.9568
     32 O4         -1.1891    0.3951   -3.2963 O.2       1 <0>        -0.9645
     33 N5          0.6218   -1.2828   -3.4074 N.pl3     1 <0>        -1.2454
     34 H1          1.6918    1.8401    1.9661 H         1 <0>         0.1360
     35 H2          0.4059    3.1667    0.3411 H         1 <0>         0.1379
     36 H3         -0.6035    2.0804   -1.6217 H         1 <0>         0.1482
     37 H4          1.9679   -0.5822    1.6386 H         1 <0>         0.1350
     38 H5          3.1274   -1.9638   -0.6696 H         1 <0>         0.1332
     39 H6          3.3973   -4.3842   -1.0062 H         1 <0>         0.1315
     40 H7         -0.8142   -4.9318   -0.4932 H         1 <0>         0.1372
     41 H8         -1.0899   -2.5137   -0.1445 H         1 <0>         0.1497
     42 H9          2.1443   -6.5154   -1.5687 H         1 <0>         0.4106
     43 H10         2.4357   -8.6178   -1.9711 H         1 <0>         0.2298
     44 H11        -2.0307   -7.6431   -0.1254 H         1 <0>         0.1505
     45 H12        -3.8995   -7.3339    1.4403 H         1 <0>         0.1569
     46 H13        -4.1858   -8.8626    3.3433 H         1 <0>         0.1453
     47 H14        -0.7087  -11.0469    2.1139 H         1 <0>         0.1429
     48 H15        -3.4904   -9.6117    5.1971 H         1 <0>         0.4470
     49 H16        -1.8241  -12.5554    3.0881 H         1 <0>         0.4466
     50 H17        -2.3454  -12.8390    4.6599 H         1 <0>         0.4339
     51 H18         1.5393   -1.1842   -3.1085 H         1 <0>         0.4157
     52 H19         0.4283   -1.7573   -4.2310 H         1 <0>         0.4214
     53 H20        -3.3093  -11.1361    5.8800 H         1 <0>         0.4339
@<TRIPOS>BOND
     1    1    6 ar
     2    1    2 ar
     3    1   34 1
     4    2    3 ar
     5    2   35 1
     6    3    4 ar
     7    3   36 1
     8    4    5 ar
     9    4   30 1
    10    5    6 ar
    11    5    7 1
    12    6   37 1
    13    7   12 ar
    14    7    8 ar
    15    8    9 ar
    16    8   38 1
    17    9   10 ar
    18    9   39 1
    19   10   11 ar
    20   10   13 1
    21   11   12 ar
    22   11   40 1
    23   12   41 1
    24   13   14 am
    25   13   42 1
    26   14   15 2
    27   14   16 1
    28   16   20 1
    29   16   17 2
    30   17   18 1
    31   17   43 1
    32   18   19 1
    33   19   20 2
    34   20   21 1
    35   21   26 ar
    36   21   22 ar
    37   22   23 ar
    38   22   44 1
    39   23   24 ar
    40   23   45 1
    41   24   25 ar
    42   24   46 1
    43   25   26 ar
    44   25   27 1
    45   26   47 1
    46   27   28 2
    47   27   29 1
    48   28   48 1
    49   28   53 1
    50   29   49 1
    51   29   50 1
    52   30   31 2
    53   30   32 2
    54   30   33 1
    55   33   51 1
    56   33   52 1
@<TRIPOS>MOLECULE
ZINC02006270
   57    60     0     0     0
SMALL
USER_CHARGES

@<TRIPOS>ATOM
      1 C1         -1.3381   -1.7836    3.6515 C.3       1 <0>        -0.0827
      2 C2         -0.7136   -1.9784    2.2939 C.2       1 <0>         0.0922
      3 C3         -0.5795   -3.1955    1.6307 C.2       1 <0>        -0.1907
      4 C4          0.0407   -2.9486    0.4218 C.2       1 <0>         0.0345
      5 N1          0.2760   -1.6008    0.3602 N.pl3     1 <0>        -0.3139
      6 N2         -0.2128   -1.0296    1.5418 N.2       1 <0>        -0.2589
      7 C5          0.8895   -0.9165   -0.6964 C.ar      1 <0>         0.1624
      8 C6          0.4621   -1.1269   -2.0021 C.ar      1 <0>        -0.0185
      9 C7          1.0644   -0.4538   -3.0480 C.ar      1 <0>        -0.0948
     10 C8          2.0942    0.4322   -2.8027 C.ar      1 <0>        -0.0532
     11 C9          2.5304    0.6502   -1.4954 C.ar      1 <0>        -0.1496
     12 C10         1.9193   -0.0248   -0.4395 C.ar      1 <0>        -0.0512
     13 C11         3.6348    1.5988   -1.2299 C.cat     1 <0>         0.6060
     14 N3          4.5844    1.7876   -2.1439 N.pl3     1 <0>        -0.7565
     15 N4          3.6789    2.2634   -0.0771 N.pl3     1 <0>        -0.7572
     16 C12         0.3840   -3.9441   -0.6044 C.2       1 <0>         0.5850
     17 O1          1.0295   -3.6133   -1.5809 O.2       1 <0>        -0.5119
     18 N5         -0.0166   -5.2232   -0.4630 N.am      1 <0>        -0.6457
     19 C13         0.3154   -6.1707   -1.4349 C.ar      1 <0>         0.1558
     20 C14         0.5114   -5.7739   -2.7526 C.ar      1 <0>        -0.1411
     21 C15         0.8395   -6.7070   -3.7129 C.ar      1 <0>        -0.0692
     22 C16         0.9746   -8.0493   -3.3617 C.ar      1 <0>        -0.1334
     23 C17         0.7776   -8.4450   -2.0396 C.ar      1 <0>        -0.0038
     24 C18         0.4549   -7.5078   -1.0815 C.ar      1 <0>        -0.1461
     25 C19         1.3271   -9.0552   -4.3935 C.ar      1 <0>         0.0588
     26 C20         0.4468   -9.3206   -5.4411 C.ar      1 <0>        -0.1270
     27 C21         0.7798  -10.2574   -6.3980 C.ar      1 <0>        -0.0563
     28 C22         1.9848  -10.9325   -6.3190 C.ar      1 <0>        -0.1368
     29 C23         2.8619  -10.6734   -5.2815 C.ar      1 <0>        -0.0159
     30 C24         2.5419   -9.7340   -4.3221 C.ar      1 <0>        -0.6669
     31 S1          3.6639   -9.3995   -3.0054 S.o2      1 <0>         2.6940
     32 O2          2.8874   -9.3328   -1.8172 O.2       1 <0>        -0.9533
     33 O3          4.7489  -10.3045   -3.1566 O.2       1 <0>        -0.9646
     34 N6          4.2754   -7.8812   -3.2569 N.pl3     1 <0>        -1.2459
     35 H1         -2.4067   -1.6018    3.5371 H         1 <0>         0.0892
     36 H2         -1.1844   -2.6789    4.2540 H         1 <0>         0.0894
     37 H3         -0.8750   -0.9294    4.1453 H         1 <0>         0.0810
     38 H4         -0.9022   -4.1591    1.9962 H         1 <0>         0.1697
     39 H5         -0.3432   -1.8189   -2.2000 H         1 <0>         0.1459
     40 H6          0.7287   -0.6218   -4.0607 H         1 <0>         0.1580
     41 H7          2.5625    0.9563   -3.6227 H         1 <0>         0.1470
     42 H8          2.2501    0.1432    0.5747 H         1 <0>         0.1457
     43 H9          4.5523    1.3034   -2.9838 H         1 <0>         0.4470
     44 H10         2.9871    2.1258    0.5888 H         1 <0>         0.4470
     45 H11         4.4028    2.8852    0.0969 H         1 <0>         0.4343
     46 H12        -0.5353   -5.4860    0.3133 H         1 <0>         0.4184
     47 H13         0.4063   -4.7340   -3.0243 H         1 <0>         0.1458
     48 H14         0.9913   -6.3983   -4.7367 H         1 <0>         0.1291
     49 H15         0.8815   -9.4844   -1.7654 H         1 <0>         0.1489
     50 H16         0.3065   -7.8132   -0.0562 H         1 <0>         0.1330
     51 H17        -0.4942   -8.7944   -5.5035 H         1 <0>         0.1357
     52 H18         0.0984  -10.4642   -7.2100 H         1 <0>         0.1363
     53 H19         2.2414  -11.6649   -7.0701 H         1 <0>         0.1377
     54 H20         3.8009  -11.2039   -5.2243 H         1 <0>         0.1479
     55 H21         3.9905   -7.3651   -4.0272 H         1 <0>         0.4152
     56 H22         4.9185   -7.5080   -2.6340 H         1 <0>         0.4200
     57 H23         5.3083    2.4094   -1.9699 H         1 <0>         0.4344
@<TRIPOS>BOND
     1    1    2 1
     2    1   35 1
     3    1   36 1
     4    1   37 1
     5    2    6 2
     6    2    3 1
     7    3    4 2
     8    3   38 1
     9    4    5 1
    10    4   16 1
    11    5    6 1
    12    5    7 1
    13    7   12 ar
    14    7    8 ar
    15    8    9 ar
    16    8   39 1
    17    9   10 ar
    18    9   40 1
    19   10   11 ar
    20   10   41 1
    21   11   12 ar
    22   11   13 1
    23   12   42 1
    24   13   14 2
    25   13   15 1
    26   14   43 1
    27   14   57 1
    28   15   44 1
    29   15   45 1
    30   16   17 2
    31   16   18 am
    32   18   19 1
    33   18   46 1
    34   19   24 ar
    35   19   20 ar
    36   20   21 ar
    37   20   47 1
    38   21   22 ar
    39   21   48 1
    40   22   23 ar
    41   22   25 1
    42   23   24 ar
    43   23   49 1
    44   24   50 1
    45   25   30 ar
    46   25   26 ar
    47   26   27 ar
    48   26   51 1
    49   27   28 ar
    50   27   52 1
    51   28   29 ar
    52   28   53 1
    53   29   30 ar
    54   29   54 1
    55   30   31 1
    56   31   32 2
    57   31   33 2
    58   31   34 1
    59   34   55 1
    60   34   56 1
@<TRIPOS>MOLECULE
ZINC00057001
   28    28     0     0     0
SMALL
USER_CHARGES

@<TRIPOS>ATOM
      1 C1         -0.0187    1.5258    0.0104 C.3       1 <0>        -0.1499
      2 C2          0.0021   -0.0041    0.0020 C.3       1 <0>        -0.0861
      3 H1         -1.0205   -0.3814    0.0098 H         1 <0>         0.0991
      4 C3          0.7421   -0.5109    1.2415 C.3       1 <0>        -0.0413
      5 S1         -0.1871   -0.0517    2.7303 S.3       1 <0>        -0.2560
      6 C4          0.7074   -0.4901   -1.2379 C.2       1 <0>         0.5406
      7 O1          1.7039   -1.1744   -1.1398 O.2       1 <0>        -0.5341
      8 N1          0.2309   -0.1642   -2.4557 N.am      1 <0>        -0.5870
      9 C5         -0.9612    0.6622   -2.7190 C.3       1 <0>         0.1001
     10 C6         -1.4323    0.2395   -4.1329 C.3       1 <0>        -0.1344
     11 C7         -0.0792    0.0101   -4.8565 C.3       1 <0>        -0.1069
     12 C8          0.8176   -0.5687   -3.7417 C.3       1 <0>         0.0652
     13 H2          0.8397   -1.6561   -3.8134 H         1 <0>         0.0661
     14 C9          2.2140   -0.0156   -3.8646 C.2       1 <0>         0.4962
     15 O2          2.9386   -0.3858   -4.7726 O.co2     1 <0>        -0.7023
     16 O3          2.6192    0.8020   -3.0561 O.co2     1 <0>        -0.6788
     17 H3          1.0039    1.9031    0.0027 H         1 <0>         0.0664
     18 H4         -0.5459    1.8868   -0.8726 H         1 <0>         0.0680
     19 H5         -0.5289    1.8773    0.9072 H         1 <0>         0.0715
     20 H6          0.8346   -1.5958    1.1912 H         1 <0>         0.0908
     21 H7          1.7350   -0.0630    1.2804 H         1 <0>         0.0927
     22 H8          0.5521   -0.5447    3.7401 H         1 <0>         0.0864
     23 H9         -1.7373    0.4540   -1.9825 H         1 <0>         0.0699
     24 H10        -0.6995    1.7202   -2.7069 H         1 <0>         0.0682
     25 H11        -2.0144   -0.6812   -4.0917 H         1 <0>         0.0709
     26 H12        -2.0003    1.0379   -4.6104 H         1 <0>         0.0779
     27 H13        -0.1941   -0.7041   -5.6719 H         1 <0>         0.0749
     28 H14         0.3271    0.9530   -5.2227 H         1 <0>         0.0719
@<TRIPOS>BOND
     1    1    2 1
     2    1   17 1
     3    1   18 1
     4    1   19 1
     5    2    3 1
     6    2    4 1
     7    2    6 1
     8    4    5 1
     9    4   20 1
    10    4   21 1
    11    5   22 1
    12    6    7 2
    13    6    8 am
    14    8   12 1
    15    8    9 1
    16    9   10 1
    17    9   23 1
    18    9   24 1
    19   10   11 1
    20   10   25 1
    21   10   26 1
    22   11   12 1
    23   11   27 1
    24   11   28 1
    25   12   13 1
    26   12   14 1
    27   14   15 2
    28   14   16 1
@<TRIPOS>MOLECULE
ZINC13646511
   61    65     0     0     0
SMALL
USER_CHARGES
1-[[5-(5-chloro-2-thienyl)isoxazol-3-yl]methyl]-N-(1-isopropyl-4-piperidyl)indole-2-carboxamide
@<TRIPOS>ATOM
      1 C1         -4.3162   13.9738    3.3468 C.3       1 <0>        -0.1863
      2 C2         -3.0098   14.7588    3.2117 C.3       1 <0>         0.0280
      3 C3         -2.2575   14.7301    4.5437 C.3       1 <0>        -0.1822
      4 C4         -0.9127   14.8773    2.0082 C.3       1 <0>         0.0022
      5 C5         -0.1386   14.3060    0.8180 C.3       1 <0>        -0.1575
      6 C6          0.1342   12.8188    1.0592 C.3       1 <0>         0.1434
      7 C7         -1.1967   12.0912    1.2687 C.3       1 <0>        -0.1610
      8 C8         -1.9402   12.7266    2.4458 C.3       1 <0>        -0.0057
      9 N1          0.8240   12.2528   -0.1027 N.am      1 <0>        -0.7208
     10 C9          1.5997   11.1600    0.0404 C.2       1 <0>         0.5958
     11 O1          1.6540   10.5889    1.1132 O.2       1 <0>        -0.5202
     12 C10         2.3804   10.6579   -1.1002 C.2       1 <0>         0.0170
     13 C11         2.4817   11.2627   -2.3126 C.2       1 <0>        -0.1314
     14 C12         3.3217   10.4628   -3.1245 C.ar      1 <0>        -0.1175
     15 C13         3.7792   10.5790   -4.4437 C.ar      1 <0>        -0.0628
     16 C14         4.6144    9.6307   -4.9583 C.ar      1 <0>        -0.1414
     17 C15         5.0059    8.5409   -4.1907 C.ar      1 <0>        -0.0786
     18 C16         4.5657    8.4016   -2.8937 C.ar      1 <0>        -0.1316
     19 C17         3.7198    9.3606   -2.3431 C.ar      1 <0>         0.1172
     20 N2          3.1284    9.4965   -1.1095 N.pl3     1 <0>        -0.4463
     21 C18         3.2727    8.5659    0.0127 C.3       1 <0>         0.1893
     22 C19         2.1232    7.5914    0.0082 C.2       1 <0>         0.0063
     23 C20         2.2122    6.1866    0.0008 C.2       1 <0>        -0.2022
     24 C21         0.9026    5.7741   -0.0033 C.2       1 <0>         0.0638
     25 O2          0.1586    6.8960    0.0103 O.3       1 <0>         0.1180
     26 N3          0.8530    7.8856    0.0165 N.2       1 <0>        -0.3313
     27 C22         0.4124    4.3887   -0.0141 C.2       1 <0>        -0.1202
     28 C23        -0.8904    3.9250   -0.0132 C.2       1 <0>        -0.1045
     29 C24        -1.1016    2.5662   -0.0299 C.2       1 <0>        -0.1434
     30 C25        -0.0310    1.7270   -0.0359 C.2       1 <0>        -0.1119
     31 S1          1.3438    2.8656   -0.0311 S.3       1 <0>         0.1755
     32 Cl1        -0.0077   -0.0087   -0.0518 Cl        1 <0>         0.0352
     33 H1         -4.0935   12.9414    3.6162 H         1 <0>         0.0823
     34 H2         -4.9335   14.4267    4.1226 H         1 <0>         0.1057
     35 H3         -4.8521   13.9943    2.3979 H         1 <0>         0.0809
     36 H4         -3.2325   15.7912    2.9424 H         1 <0>         0.1361
     37 H5         -1.3268   15.2893    4.4474 H         1 <0>         0.0807
     38 H6         -2.8749   15.1829    5.3195 H         1 <0>         0.1050
     39 H7         -2.0348   13.6976    4.8130 H         1 <0>         0.0805
     40 H8         -0.3164   14.7704    2.9143 H         1 <0>         0.1344
     41 H9         -1.1210   15.9327    1.8331 H         1 <0>         0.1349
     42 H10         0.8074   14.8368    0.7106 H         1 <0>         0.1206
     43 H11        -0.7280   14.4251   -0.0912 H         1 <0>         0.0957
     44 H12         0.7577   12.7019    1.9456 H         1 <0>         0.1050
     45 H13        -1.8033   12.1754    0.3670 H         1 <0>         0.0906
     46 H14        -1.0067   11.0396    1.4832 H         1 <0>         0.1193
     47 H15        -1.3390   12.6298    3.3499 H         1 <0>         0.1332
     48 H16        -2.8947   12.2201    2.5885 H         1 <0>         0.1348
     49 H17         0.7224   12.6646   -0.9751 H         1 <0>         0.4086
     50 H18         2.0067   12.1877   -2.6046 H         1 <0>         0.1497
     51 H19         3.4812   11.4233   -5.0476 H         1 <0>         0.1270
     52 H20         4.9690    9.7246   -5.9741 H         1 <0>         0.1287
     53 H21         5.6618    7.7955   -4.6157 H         1 <0>         0.1321
     54 H22         4.8754    7.5506   -2.3051 H         1 <0>         0.1234
     55 H23         3.2727    9.1234    0.9493 H         1 <0>         0.1261
     56 H24         4.2115    8.0209   -0.0857 H         1 <0>         0.1143
     57 H25         3.1028    5.5758   -0.0027 H         1 <0>         0.1792
     58 H26        -1.7223    4.6137   -0.0042 H         1 <0>         0.1507
     59 H27        -2.1062    2.1698   -0.0351 H         1 <0>         0.1528
     60 N4         -2.1936   14.1508    2.1407 N.4       1 <0>        -0.3936
     61 H28        -2.7063   14.2151    1.2535 H         1 <0>         0.4268
@<TRIPOS>BOND
     1    1    2 1
     2    1   33 1
     3    1   34 1
     4    1   35 1
     5    2    3 1
     6    2   36 1
     7    2   60 1
     8    3   37 1
     9    3   38 1
    10    3   39 1
    11    4    5 1
    12    4   40 1
    13    4   41 1
    14    4   60 1
    15    5    6 1
    16    5   42 1
    17    5   43 1
    18    6    7 1
    19    6    9 1
    20    6   44 1
    21    7    8 1
    22    7   45 1
    23    7   46 1
    24    8   47 1
    25    8   48 1
    26    8   60 1
    27    9   10 am
    28    9   49 1
    29   10   11 2
    30   10   12 1
    31   12   20 1
    32   12   13 2
    33   13   14 1
    34   13   50 1
    35   14   19 ar
    36   14   15 ar
    37   15   16 ar
    38   15   51 1
    39   16   17 ar
    40   16   52 1
    41   17   18 ar
    42   17   53 1
    43   18   19 ar
    44   18   54 1
    45   19   20 1
    46   20   21 1
    47   21   22 1
    48   21   55 1
    49   21   56 1
    50   22   26 2
    51   22   23 1
    52   23   24 2
    53   23   57 1
    54   24   25 1
    55   24   27 1
    56   25   26 1
    57   27   31 1
    58   27   28 2
    59   28   29 1
    60   28   58 1
    61   29   30 2
    62   29   59 1
    63   30   31 1
    64   30   32 1
    65   60   61 1
@<TRIPOS>MOLECULE
ZINC03952416
   70    73     0     0     0
SMALL
USER_CHARGES
2-[(7-amidino-2-naphthyl)methyl-[4-[(1-ethanimidoyl-4-piperidyl)oxy]phenyl]-sulfamoyl]acetic acid
@<TRIPOS>ATOM
      1 C1         -4.8156   -6.9086    0.2191 C.3       1 <0>        -0.1622
      2 C2         -5.1174   -6.7189   -1.2452 C.cat     1 <0>         0.5282
      3 H1         -5.7695   -8.6029   -1.6136 H         1 <0>         0.4564
      4 N1         -4.8997   -5.5030   -1.8375 N.pl3     1 <0>        -0.5586
      5 C3         -5.2987   -5.2673   -3.2318 C.3       1 <0>         0.0883
      6 C4         -4.0865   -4.7467   -4.0104 C.3       1 <0>        -0.1362
      7 C5         -3.5209   -3.5140   -3.3015 C.3       1 <0>         0.0786
      8 C6         -3.0616   -3.8992   -1.8935 C.3       1 <0>        -0.1633
      9 C7         -4.2623   -4.4098   -1.0907 C.3       1 <0>         0.0909
     10 O1         -2.4096   -3.0066   -4.0427 O.3       1 <0>        -0.3027
     11 C8         -2.1977   -1.6639   -3.9964 C.ar      1 <0>         0.0935
     12 C9         -2.9673   -0.8692   -3.1597 C.ar      1 <0>        -0.1687
     13 C10        -2.7536    0.4943   -3.1128 C.ar      1 <0>        -0.1128
     14 C11        -1.7675    1.0698   -3.9032 C.ar      1 <0>         0.1545
     15 C12        -1.0009    0.2741   -4.7444 C.ar      1 <0>        -0.1118
     16 C13        -1.2126   -1.0900   -4.7863 C.ar      1 <0>        -0.1137
     17 N2         -1.5500    2.4514   -3.8562 N.pl3     1 <0>        -0.9430
     18 C14        -0.2348    2.9981   -4.1988 C.3       1 <0>         0.1337
     19 C15         0.6838    2.8791   -3.0100 C.ar      1 <0>        -0.0921
     20 C16         1.5121    1.7647   -2.8910 C.ar      1 <0>        -0.0595
     21 C17         2.3536    1.6264   -1.8299 C.ar      1 <0>        -0.1144
     22 C18         2.3915    2.6199   -0.8371 C.ar      1 <0>        -0.0085
     23 C19         3.2505    2.5062    0.2711 C.ar      1 <0>        -0.0845
     24 C20         3.2698    3.4791    1.2177 C.ar      1 <0>        -0.0898
     25 C21         2.4398    4.6081    1.1082 C.ar      1 <0>        -0.1553
     26 C22         1.5840    4.7493    0.0304 C.ar      1 <0>        -0.0087
     27 C23         1.5492    3.7541   -0.9582 C.ar      1 <0>        -0.0610
     28 C24         0.6965    3.8642   -2.0712 C.ar      1 <0>        -0.0869
     29 C25         2.4813    5.6543    2.1547 C.cat     1 <0>         0.5985
     30 H2          1.6692    7.4419    2.6932 H         1 <0>         0.4447
     31 N3          3.3318    5.5192    3.2305 N.pl3     1 <0>        -0.7837
     32 S1         -2.7815    3.4690   -3.4199 S.o2      1 <0>         2.6099
     33 O2         -2.4664    4.7072   -4.0418 O.2       1 <0>        -0.9316
     34 O3         -3.9695    2.7681   -3.7620 O.2       1 <0>        -0.9382
     35 C26        -2.6434    3.6220   -1.6177 C.3       1 <0>        -0.6599
     36 C27        -3.6006    4.6782   -1.1285 C.2       1 <0>         0.4872
     37 O4         -4.3038    5.2672   -1.9149 O.co2     1 <0>        -0.6126
     38 H3         -4.5078   -5.9572    0.6528 H         1 <0>         0.1214
     39 H4         -5.7081   -7.2692    0.7303 H         1 <0>         0.1311
     40 H5         -4.0124   -7.6367    0.3331 H         1 <0>         0.1308
     41 H6         -6.0983   -4.5272   -3.2630 H         1 <0>         0.1154
     42 H7         -5.6447   -6.2008   -3.6756 H         1 <0>         0.0980
     43 H8         -4.3918   -4.4770   -5.0213 H         1 <0>         0.1091
     44 H9         -3.3224   -5.5228   -4.0555 H         1 <0>         0.0887
     45 H10        -4.2931   -2.7475   -3.2346 H         1 <0>         0.0887
     46 H11        -2.3073   -4.6834   -1.9587 H         1 <0>         0.0893
     47 H12        -2.6374   -3.0261   -1.3975 H         1 <0>         0.1054
     48 H13        -4.9774   -3.5998   -0.9473 H         1 <0>         0.1085
     49 H14        -3.9267   -4.7769   -0.1209 H         1 <0>         0.1175
     50 H15        -3.7343   -1.3169   -2.5451 H         1 <0>         0.1315
     51 H16        -3.3534    1.1131   -2.4618 H         1 <0>         0.1316
     52 H17        -0.2370    0.7215   -5.3631 H         1 <0>         0.1388
     53 H18        -0.6137   -1.7095   -5.4375 H         1 <0>         0.1369
     54 H19         0.1828    2.4413   -5.0377 H         1 <0>         0.1059
     55 H20        -0.3380    4.0475   -4.4746 H         1 <0>         0.1226
     56 H21         1.4858    0.9989   -3.6521 H         1 <0>         0.1380
     57 H22         2.9894    0.7570   -1.7516 H         1 <0>         0.1417
     58 H23         3.8944    1.6447    0.3690 H         1 <0>         0.1474
     59 H24         3.9318    3.3846    2.0658 H         1 <0>         0.1345
     60 H25         0.9475    5.6182   -0.0491 H         1 <0>         0.1445
     61 H26         0.0523    4.7244   -2.1783 H         1 <0>         0.1437
     62 H27         3.9032    4.7386    3.3021 H         1 <0>         0.4413
     63 H28         3.3590    6.2046    3.9163 H         1 <0>         0.4298
     64 H29        -2.8873    2.6670   -1.1521 H         1 <0>         0.1327
     65 H30        -1.6243    3.9050   -1.3541 H         1 <0>         0.1277
     66 N4         -5.5906   -7.6794   -2.0082 N.pl3     1 <0>        -0.7681
     67 H31        -5.7801   -7.4999   -3.0012 H         1 <0>         0.4395
     68 N5          1.6770    6.6947    1.9988 N.pl3     1 <0>        -0.7567
     69 H32         1.0612    6.7493    1.1790 H         1 <0>         0.4630
     70 O5         -3.6719    4.9646    0.1810 O.co2     1 <0>        -0.7350
@<TRIPOS>BOND
     1    1    2 1
     2    1   38 1
     3    1   39 1
     4    1   40 1
     5    2    4 1
     6    2   66 2
     7    3   66 1
     8    4    9 1
     9    4    5 1
    10    5    6 1
    11    5   41 1
    12    5   42 1
    13    6    7 1
    14    6   43 1
    15    6   44 1
    16    7    8 1
    17    7   10 1
    18    7   45 1
    19    8    9 1
    20    8   46 1
    21    8   47 1
    22    9   48 1
    23    9   49 1
    24   10   11 1
    25   11   16 ar
    26   11   12 ar
    27   12   13 ar
    28   12   50 1
    29   13   14 ar
    30   13   51 1
    31   14   15 ar
    32   14   17 1
    33   15   16 ar
    34   15   52 1
    35   16   53 1
    36   17   18 1
    37   17   32 1
    38   18   19 1
    39   18   54 1
    40   18   55 1
    41   19   28 ar
    42   19   20 ar
    43   20   21 ar
    44   20   56 1
    45   21   22 ar
    46   21   57 1
    47   22   27 ar
    48   22   23 ar
    49   23   24 ar
    50   23   58 1
    51   24   25 ar
    52   24   59 1
    53   25   26 ar
    54   25   29 1
    55   26   27 ar
    56   26   60 1
    57   27   28 ar
    58   28   61 1
    59   29   31 1
    60   29   68 2
    61   30   68 1
    62   31   62 1
    63   31   63 1
    64   32   33 2
    65   32   34 2
    66   32   35 1
    67   35   36 1
    68   35   64 1
    69   35   65 1
    70   36   37 2
    71   36   70 1
    72   66   67 1
    73   68   69 1
@<TRIPOS>MOLECULE
ZINC00036634
   18    18     0     0     0
SMALL
USER_CHARGES

@<TRIPOS>ATOM
      1 C1         -0.0167    1.3793    0.0096 C.ar      1 <0>        -0.0493
      2 C2          1.1684    2.0931    0.0021 C.ar      1 <0>        -0.1131
      3 C3          2.3774    1.4284   -0.0134 C.ar      1 <0>        -0.0592
      4 C4          2.4031    0.0335   -0.0211 C.ar      1 <0>        -0.1590
      5 C5          1.2045   -0.6805   -0.0130 C.ar      1 <0>        -0.0593
      6 C6          0.0021   -0.0041    0.0020 C.ar      1 <0>        -0.1131
      7 C7          3.6962   -0.6857   -0.0382 C.cat     1 <0>         0.6008
      8 N1          3.7175   -2.0169   -0.0455 N.pl3     1 <0>        -0.7620
      9 N2          4.8384   -0.0015   -0.0463 N.pl3     1 <0>        -0.7620
     10 H1         -0.9604    1.9041    0.0260 H         1 <0>         0.1474
     11 H2          1.1472    3.1728    0.0081 H         1 <0>         0.1491
     12 H3          3.3019    1.9867   -0.0199 H         1 <0>         0.1374
     13 H4          1.2179   -1.7604   -0.0192 H         1 <0>         0.1374
     14 H5         -0.9265   -0.5556    0.0079 H         1 <0>         0.1491
     15 H6          2.8854   -2.5154   -0.0396 H         1 <0>         0.4443
     16 H7          4.8229    0.9683   -0.0410 H         1 <0>         0.4443
     17 H8          5.6860   -0.4730   -0.0576 H         1 <0>         0.4336
     18 H9          4.5652   -2.4884   -0.0567 H         1 <0>         0.4336
@<TRIPOS>BOND
     1    1    6 ar
     2    1    2 ar
     3    1   10 1
     4    2    3 ar
     5    2   11 1
     6    3    4 ar
     7    3   12 1
     8    4    5 ar
     9    4    7 1
    10    5    6 ar
    11    5   13 1
    12    6   14 1
    13    7    8 2
    14    7    9 1
    15    8   15 1
    16    8   18 1
    17    9   16 1
    18    9   17 1
@<TRIPOS>MOLECULE
ZINC11677837
   59    63     0     0     0
SMALL
USER_CHARGES
1-(4-methoxyphenyl)-7-oxo-6-[4-(2-oxo-1-piperidyl)phenyl]-4,5-dihydropyrazolo[5,4-c]pyridine-3-carboxamide
@<TRIPOS>ATOM
      1 C1          3.9911    9.6190   -0.0270 C.3       1 <0>         0.0230
      2 O1          2.7303    9.6695    0.6437 O.3       1 <0>        -0.3102
      3 C2          1.9295    8.5767    0.5353 C.ar      1 <0>         0.1510
      4 C3          0.6915    8.5591    1.1620 C.ar      1 <0>        -0.1362
      5 C4         -0.1223    7.4497    1.0523 C.ar      1 <0>        -0.0311
      6 C5          0.2984    6.3503    0.3147 C.ar      1 <0>         0.0658
      7 C6          1.5405    6.3661   -0.3072 C.ar      1 <0>        -0.0464
      8 C7          2.3506    7.4787   -0.2017 C.ar      1 <0>        -0.2011
      9 N1         -0.5264    5.2246    0.2030 N.pl3     1 <0>        -0.1695
     10 C8         -1.8587    5.2536   -0.0265 C.2       1 <0>        -0.0483
     11 C9         -2.2851    3.9413   -0.0824 C.2       1 <0>        -0.0932
     12 C10        -1.1522    3.1653    0.1436 C.2       1 <0>        -0.0104
     13 N2         -0.1317    3.9989    0.3025 N.2       1 <0>        -0.2351
     14 C11        -1.0951    1.6902    0.1913 C.2       1 <0>         0.6133
     15 O2         -2.1076    1.0371    0.0288 O.2       1 <0>        -0.5270
     16 N3          0.0794    1.0682    0.4151 N.am      1 <0>        -0.8392
     17 C12        -3.7185    3.5812   -0.3503 C.3       1 <0>        -0.0653
     18 C13        -4.6134    4.7185    0.1487 C.3       1 <0>         0.1123
     19 N4         -4.1236    6.0319   -0.2517 N.am      1 <0>        -0.5597
     20 C14        -2.8112    6.3561   -0.2247 C.2       1 <0>         0.6035
     21 O3         -2.4361    7.5041   -0.3710 O.2       1 <0>        -0.5000
     22 C15        -5.0482    6.9954   -0.6717 C.ar      1 <0>         0.1379
     23 C16        -5.9601    7.5237    0.2330 C.ar      1 <0>        -0.1032
     24 C17        -6.8680    8.4780   -0.1800 C.ar      1 <0>        -0.1067
     25 C18        -6.8772    8.9014   -1.5026 C.ar      1 <0>         0.1404
     26 C19        -5.9693    8.3690   -2.4085 C.ar      1 <0>        -0.0895
     27 C20        -5.0575    7.4189   -1.9945 C.ar      1 <0>        -0.0942
     28 N5         -7.8027    9.8652   -1.9230 N.am      1 <0>        -0.5643
     29 C21        -7.6589   11.2209   -1.4075 C.3       1 <0>         0.1122
     30 C22        -8.4106   12.2130   -2.2990 C.3       1 <0>        -0.1365
     31 C23        -9.8431   11.7025   -2.4960 C.3       1 <0>        -0.1260
     32 C24        -9.7896   10.4218   -3.3327 C.3       1 <0>        -0.1326
     33 C25        -8.7634    9.4835   -2.7655 C.2       1 <0>         0.5177
     34 O4         -8.8105    8.3162   -3.0915 O.2       1 <0>        -0.5369
     35 H1          4.5292   10.5520    0.1403 H         1 <0>         0.1050
     36 H2          4.5771    8.7867    0.3630 H         1 <0>         0.0596
     37 H3          3.8288    9.4798   -1.0958 H         1 <0>         0.0594
     38 H4          0.3645    9.4139    1.7354 H         1 <0>         0.1454
     39 H5         -1.0858    7.4362    1.5401 H         1 <0>         0.1372
     40 H6          1.8703    5.5099   -0.8768 H         1 <0>         0.1385
     41 H7          3.3144    7.4930   -0.6889 H         1 <0>         0.1423
     42 H8          0.1169    0.0994    0.4465 H         1 <0>         0.4096
     43 H9          0.8879    1.5892    0.5408 H         1 <0>         0.4085
     44 H10        -3.8665    3.4428   -1.4213 H         1 <0>         0.0942
     45 H11        -3.9689    2.6608    0.1773 H         1 <0>         0.1175
     46 H12        -5.6172    4.5792   -0.2527 H         1 <0>         0.1001
     47 H13        -4.6621    4.6771    1.2368 H         1 <0>         0.0755
     48 H14        -5.9561    7.1909    1.2604 H         1 <0>         0.1321
     49 H15        -7.5742    8.8921    0.5245 H         1 <0>         0.1306
     50 H16        -5.9763    8.6986   -3.4370 H         1 <0>         0.1271
     51 H17        -4.3516    7.0046   -2.6991 H         1 <0>         0.1273
     52 H18        -8.0596   11.2658   -0.3949 H         1 <0>         0.0708
     53 H19        -6.6023   11.4878   -1.3857 H         1 <0>         0.0803
     54 H20        -7.9137   12.2904   -3.2661 H         1 <0>         0.0751
     55 H21        -8.4337   13.1920   -1.8204 H         1 <0>         0.0895
     56 H22       -10.4330   12.4567   -3.0169 H         1 <0>         0.0806
     57 H23       -10.2937   11.4891   -1.5268 H         1 <0>         0.0726
     58 H24        -9.5237   10.6712   -4.3599 H         1 <0>         0.1026
     59 H25       -10.7672    9.9399   -3.3198 H         1 <0>         0.1036
@<TRIPOS>BOND
     1    1    2 1
     2    1   35 1
     3    1   36 1
     4    1   37 1
     5    2    3 1
     6    3    8 ar
     7    3    4 ar
     8    4    5 ar
     9    4   38 1
    10    5    6 ar
    11    5   39 1
    12    6    7 ar
    13    6    9 1
    14    7    8 ar
    15    7   40 1
    16    8   41 1
    17    9   13 1
    18    9   10 1
    19   10   20 1
    20   10   11 2
    21   11   12 1
    22   11   17 1
    23   12   13 2
    24   12   14 1
    25   14   15 2
    26   14   16 am
    27   16   42 1
    28   16   43 1
    29   17   18 1
    30   17   44 1
    31   17   45 1
    32   18   19 1
    33   18   46 1
    34   18   47 1
    35   19   20 am
    36   19   22 1
    37   20   21 2
    38   22   27 ar
    39   22   23 ar
    40   23   24 ar
    41   23   48 1
    42   24   25 ar
    43   24   49 1
    44   25   26 ar
    45   25   28 1
    46   26   27 ar
    47   26   50 1
    48   27   51 1
    49   28   33 am
    50   28   29 1
    51   29   30 1
    52   29   52 1
    53   29   53 1
    54   30   31 1
    55   30   54 1
    56   30   55 1
    57   31   32 1
    58   31   56 1
    59   31   57 1
    60   32   33 1
    61   32   58 1
    62   32   59 1
    63   33   34 2
@<TRIPOS>MOLECULE
ZINC00037184
   21    22     0     0     0
SMALL
USER_CHARGES
(4-chloropyrazol-1-yl)-(4-fluorophenyl)methanone
@<TRIPOS>ATOM
      1 C1          3.4315    2.8689    0.1020 C.ar      1 <0>        -0.0430
      2 C2          4.8012    2.7428    0.1858 C.ar      1 <0>        -0.1708
      3 C3          5.5992    3.8724    0.2882 C.ar      1 <0>         0.1427
      4 C4          5.0252    5.1347    0.3001 C.ar      1 <0>        -0.1712
      5 C5          3.6571    5.2733    0.2101 C.ar      1 <0>        -0.0189
      6 C6          2.8478    4.1386    0.1072 C.ar      1 <0>        -0.1703
      7 C7          1.3825    4.2805    0.0105 C.2       1 <0>         0.6053
      8 O1          0.8846    5.3837   -0.0927 O.2       1 <0>        -0.4688
      9 N1          0.5964    3.1861    0.0367 N.am      1 <0>        -0.3666
     10 C8         -0.7663    3.1761    0.0589 C.2       1 <0>         0.1003
     11 C9         -1.1644    1.8846    0.0748 C.2       1 <0>        -0.1675
     12 C10        -0.0169    1.0783    0.0712 C.2       1 <0>         0.1112
     13 N2          1.0338    1.8552    0.0451 N.2       1 <0>        -0.2710
     14 Cl1        -2.8068    1.3228    0.0993 Cl        1 <0>        -0.0162
     15 F1          6.9410    3.7425    0.3763 F         1 <0>        -0.1296
     16 H1          2.8106    1.9883    0.0275 H         1 <0>         0.1838
     17 H2          5.2537    1.7622    0.1767 H         1 <0>         0.1463
     18 H3          5.6516    6.0109    0.3797 H         1 <0>         0.1477
     19 H4          3.2112    6.2570    0.2188 H         1 <0>         0.1481
     20 H5         -1.4109    4.0427    0.0593 H         1 <0>         0.1991
     21 H6         -0.0037   -0.0016    0.0833 H         1 <0>         0.2095
@<TRIPOS>BOND
     1    1    6 ar
     2    1    2 ar
     3    1   16 1
     4    2    3 ar
     5    2   17 1
     6    3    4 ar
     7    3   15 1
     8    4    5 ar
     9    4   18 1
    10    5    6 ar
    11    5   19 1
    12    6    7 1
    13    7    8 2
    14    7    9 am
    15    9   13 1
    16    9   10 1
    17   10   11 2
    18   10   20 1
    19   11   12 1
    20   11   14 1
    21   12   13 2
    22   12   21 1
@<TRIPOS>MOLECULE
ZINC00138223
   29    30     0     0     0
SMALL
USER_CHARGES
(4-chloro-3,5-dimethyl-pyrazol-1-yl)-(4-chloro-3-nitro-phenyl)-methanone
@<TRIPOS>ATOM
      1 C1         -4.4608   -1.6299   -0.2628 C.3       1 <0>        -0.0891
      2 C2         -3.8700   -0.2447   -0.2063 C.2       1 <0>         0.1498
      3 C3         -4.5909    0.9572   -0.2586 C.2       1 <0>        -0.1730
      4 C4         -3.7079    1.9769   -0.1743 C.2       1 <0>         0.1392
      5 N1         -2.4611    1.4343   -0.0802 N.am      1 <0>        -0.3659
      6 N2         -2.5990    0.0403   -0.0998 N.2       1 <0>        -0.2889
      7 C5         -1.3032    2.1167    0.0197 C.2       1 <0>         0.6083
      8 O1         -1.3184    3.3271    0.1216 O.2       1 <0>        -0.4555
      9 C6         -0.0167    1.3935    0.0055 C.ar      1 <0>        -0.1490
     10 C7          0.0029   -0.0036    0.0234 C.ar      1 <0>        -0.0133
     11 C8          1.2076   -0.6733    0.0042 C.ar      1 <0>        -0.1237
     12 C9          2.3973    0.0359   -0.0332 C.ar      1 <0>         0.0467
     13 C10         2.3846    1.4209   -0.0511 C.ar      1 <0>        -0.0575
     14 C11         1.1863    2.1026   -0.0318 C.ar      1 <0>         0.0234
     15 N3          3.6603    2.1706   -0.0906 N.pl3     1 <0>         0.0259
     16 O2          3.6506    3.3885   -0.1064 O.2       1 <0>        -0.1522
     17 O3          4.7196    1.5698   -0.1073 O.3       1 <0>        -0.1277
     18 Cl1         3.9103   -0.8149   -0.0583 Cl        1 <0>         0.0115
     19 C12        -4.0409    3.4466   -0.1859 C.3       1 <0>        -0.1104
     20 Cl2        -6.3145    1.1085   -0.4004 Cl        1 <0>        -0.0114
     21 H1         -4.6874   -1.9698    0.7478 H         1 <0>         0.0959
     22 H2         -5.3767   -1.6105   -0.8535 H         1 <0>         0.0922
     23 H3         -3.7457   -2.3114   -0.7236 H         1 <0>         0.0888
     24 H4         -0.9237   -0.5575    0.0526 H         1 <0>         0.1997
     25 H5          1.2242   -1.7531    0.0180 H         1 <0>         0.1684
     26 H6          1.1777    3.1825   -0.0461 H         1 <0>         0.1760
     27 H7         -4.0394    3.8114   -1.2130 H         1 <0>         0.0960
     28 H8         -5.0272    3.5991    0.2524 H         1 <0>         0.0952
     29 H9         -3.2971    3.9923    0.3947 H         1 <0>         0.1008
@<TRIPOS>BOND
     1    1    2 1
     2    1   21 1
     3    1   22 1
     4    1   23 1
     5    2    6 2
     6    2    3 1
     7    3    4 2
     8    3   20 1
     9    4    5 1
    10    4   19 1
    11    5    6 1
    12    5    7 am
    13    7    8 2
    14    7    9 1
    15    9   14 ar
    16    9   10 ar
    17   10   11 ar
    18   10   24 1
    19   11   12 ar
    20   11   25 1
    21   12   13 ar
    22   12   18 1
    23   13   14 ar
    24   13   15 1
    25   14   26 1
    26   15   16 2
    27   15   17 1
    28   19   27 1
    29   19   28 1
    30   19   29 1
@<TRIPOS>MOLECULE
ZINC00037160
   23    24     0     0     0
SMALL
USER_CHARGES
(4-chloropyrazol-1-yl)-(3-nitrophenyl)-methanone
@<TRIPOS>ATOM
      1 C1          1.1773    1.7808   -0.0325 C.ar      1 <0>        -0.1281
      2 C2          1.1660    3.1602   -0.0251 C.ar      1 <0>        -0.0253
      3 C3         -0.0501    3.8450    0.0230 C.ar      1 <0>        -0.1511
      4 C4         -1.2476    3.1268    0.0633 C.ar      1 <0>         0.0108
      5 C5         -1.2216    1.7480    0.0495 C.ar      1 <0>        -0.0585
      6 C6         -0.0126    1.0758    0.0075 C.ar      1 <0>        -0.0179
      7 N1         -2.4896    0.9852    0.0860 N.pl3     1 <0>         0.0265
      8 O1         -2.4682   -0.2326    0.0790 O.2       1 <0>        -0.1491
      9 O2         -3.5545    1.5753    0.1230 O.3       1 <0>        -0.1509
     10 C7         -0.0702    5.3215    0.0308 C.2       1 <0>         0.6070
     11 O3         -1.1271    5.9149   -0.0475 O.2       1 <0>        -0.4568
     12 N2          1.0843    6.0106    0.1248 N.am      1 <0>        -0.3680
     13 C8          1.2054    7.3634    0.2389 C.2       1 <0>         0.1034
     14 C9          2.5244    7.6504    0.3060 C.2       1 <0>        -0.1659
     15 C10         3.2341    6.4430    0.2313 C.2       1 <0>         0.1184
     16 N3          2.3742    5.4641    0.1288 N.2       1 <0>        -0.2782
     17 Cl1         3.2180    9.2346    0.4570 Cl        1 <0>        -0.0116
     18 H1          2.1170    1.2499   -0.0693 H         1 <0>         0.1598
     19 H2          2.0955    3.7093   -0.0567 H         1 <0>         0.1919
     20 H3         -2.1916    3.6501    0.1006 H         1 <0>         0.1676
     21 H4          0.0021   -0.0041    0.0015 H         1 <0>         0.1626
     22 H5          0.3947    8.0763    0.2705 H         1 <0>         0.2014
     23 H6          4.3087    6.3393    0.2591 H         1 <0>         0.2119
@<TRIPOS>BOND
     1    1    6 ar
     2    1    2 ar
     3    1   18 1
     4    2    3 ar
     5    2   19 1
     6    3    4 ar
     7    3   10 1
     8    4    5 ar
     9    4   20 1
    10    5    6 ar
    11    5    7 1
    12    6   21 1
    13    7    8 2
    14    7    9 1
    15   10   11 2
    16   10   12 am
    17   12   16 1
    18   12   13 1
    19   13   14 2
    20   13   22 1
    21   14   15 1
    22   14   17 1
    23   15   16 2
    24   15   23 1
@<TRIPOS>MOLECULE
ZINC00037188
   24    25     0     0     0
SMALL
USER_CHARGES
(4-bromopyrazol-1-yl)-(p-tolyl)methanone
@<TRIPOS>ATOM
      1 C1          7.0963    3.7277    0.3894 C.3       1 <0>        -0.1242
      2 C2          5.5995    3.8725    0.2902 C.ar      1 <0>        -0.0421
      3 C3          5.0273    5.1323    0.3020 C.ar      1 <0>        -0.1395
      4 C4          3.6581    5.2723    0.2116 C.ar      1 <0>        -0.0445
      5 C5          2.8489    4.1386    0.1082 C.ar      1 <0>        -0.1654
      6 C6          3.4329    2.8699    0.1026 C.ar      1 <0>        -0.0675
      7 C7          4.8039    2.7450    0.1880 C.ar      1 <0>        -0.1395
      8 C8          1.3823    4.2805    0.0115 C.2       1 <0>         0.6018
      9 O1          0.8843    5.3836   -0.0912 O.2       1 <0>        -0.4718
     10 N1          0.5962    3.1860    0.0371 N.am      1 <0>        -0.3660
     11 C9         -0.7663    3.1759    0.0595 C.2       1 <0>         0.1236
     12 C10        -1.1643    1.8845    0.0744 C.2       1 <0>        -0.2249
     13 C11        -0.0168    1.0782    0.0709 C.2       1 <0>         0.1185
     14 N2          1.0337    1.8551    0.0449 N.2       1 <0>        -0.2687
     15 Br1        -2.9533    1.2725    0.1009 Br        1 <0>         0.0050
     16 H1          7.3851    3.6504    1.4376 H         1 <0>         0.0783
     17 H2          7.4103    2.8289   -0.1412 H         1 <0>         0.0723
     18 H3          7.5760    4.5991   -0.0563 H         1 <0>         0.0718
     19 H4          5.6542    6.0081    0.3820 H         1 <0>         0.1333
     20 H5          3.2128    6.2562    0.2202 H         1 <0>         0.1366
     21 H6          2.8127    1.9889    0.0271 H         1 <0>         0.1744
     22 H7          5.2571    1.7647    0.1793 H         1 <0>         0.1319
     23 H8         -1.4109    4.0424    0.0603 H         1 <0>         0.1984
     24 H9         -0.0037   -0.0016    0.0829 H         1 <0>         0.2080
@<TRIPOS>BOND
     1    1    2 1
     2    1   16 1
     3    1   17 1
     4    1   18 1
     5    2    7 ar
     6    2    3 ar
     7    3    4 ar
     8    3   19 1
     9    4    5 ar
    10    4   20 1
    11    5    6 ar
    12    5    8 1
    13    6    7 ar
    14    6   21 1
    15    7   22 1
    16    8    9 2
    17    8   10 am
    18   10   14 1
    19   10   11 1
    20   11   12 2
    21   11   23 1
    22   12   13 1
    23   12   15 1
    24   13   14 2
    25   13   24 1
@<TRIPOS>MOLECULE
ZINC00037156
   21    22     0     0     0
SMALL
USER_CHARGES
(3,4-dichlorophenyl)-pyrazol-1-yl-methanone
@<TRIPOS>ATOM
      1 C1         -0.0148    1.4029    0.0670 C.2       1 <0>        -0.2423
      2 C2          0.0020    0.0012    0.0648 C.2       1 <0>         0.0972
      3 N1          1.2464   -0.3966    0.0307 N.2       1 <0>        -0.2906
      4 N2          2.0695    0.7368    0.0098 N.am      1 <0>        -0.3751
      5 C3          1.2645    1.8353    0.0329 C.2       1 <0>         0.0795
      6 C4          3.4168    0.7398   -0.0266 C.2       1 <0>         0.6044
      7 O1          4.0190    1.7886   -0.1401 O.2       1 <0>        -0.4707
      8 C5          4.1604   -0.5314    0.0714 C.ar      1 <0>        -0.1412
      9 C6          5.5547   -0.5231    0.1636 C.ar      1 <0>        -0.0347
     10 C7          6.2440   -1.7134    0.2549 C.ar      1 <0>        -0.1153
     11 C8          5.5578   -2.9167    0.2554 C.ar      1 <0>         0.0034
     12 C9          4.1746   -2.9324    0.1648 C.ar      1 <0>        -0.0505
     13 C10         3.4729   -1.7473    0.0782 C.ar      1 <0>        -0.0543
     14 Cl1         3.3232   -4.4453    0.1674 Cl        1 <0>        -0.0360
     15 Cl2         6.4335   -4.4112    0.3707 Cl        1 <0>        -0.0345
     16 H1         -0.8958    2.0273    0.0876 H         1 <0>         0.1659
     17 H2         -0.8660   -0.6410    0.0881 H         1 <0>         0.2017
     18 H3          1.5900    2.8651    0.0254 H         1 <0>         0.1900
     19 H4          6.0913    0.4142    0.1629 H         1 <0>         0.1536
     20 H5          7.3217   -1.7077    0.3258 H         1 <0>         0.1547
     21 H6          2.3950   -1.7600    0.0122 H         1 <0>         0.1949
@<TRIPOS>BOND
     1    1    5 2
     2    1    2 1
     3    1   16 1
     4    2    3 2
     5    2   17 1
     6    3    4 1
     7    4    5 1
     8    4    6 am
     9    5   18 1
    10    6    7 2
    11    6    8 1
    12    8   13 ar
    13    8    9 ar
    14    9   10 ar
    15    9   19 1
    16   10   11 ar
    17   10   20 1
    18   11   12 ar
    19   11   15 1
    20   12   13 ar
    21   12   14 1
    22   13   21 1
@<TRIPOS>MOLECULE
ZINC00078678
   26    27     0     0     0
SMALL
USER_CHARGES
(3-nitropyrazol-1-yl)-(p-tolyl)methanone
@<TRIPOS>ATOM
      1 C1         -0.0763    5.7484    0.0285 C.3       1 <0>        -0.1257
      2 C2         -0.0558    4.2416    0.0218 C.ar      1 <0>        -0.0363
      3 C3          1.1535    3.5693    0.0409 C.ar      1 <0>        -0.1381
      4 C4          1.1798    2.1902    0.0349 C.ar      1 <0>        -0.0402
      5 C5         -0.0181    1.4724    0.0091 C.ar      1 <0>        -0.1731
      6 C6         -1.2349    2.1575   -0.0158 C.ar      1 <0>        -0.0666
      7 C7         -1.2463    3.5368   -0.0037 C.ar      1 <0>        -0.1351
      8 C8          0.0021   -0.0041    0.0020 C.2       1 <0>         0.6028
      9 O1          1.0573   -0.5966   -0.1021 O.2       1 <0>        -0.4538
     10 N1         -1.1504   -0.6943    0.1110 N.am      1 <0>        -0.3402
     11 C9         -1.2694   -2.0473    0.2133 C.2       1 <0>         0.1024
     12 C10        -2.5862   -2.3353    0.3028 C.2       1 <0>        -0.1984
     13 C11        -3.2974   -1.1282    0.2545 C.2       1 <0>         0.1586
     14 N2         -2.4400   -0.1480    0.1456 N.2       1 <0>        -0.1934
     15 N3         -4.7694   -0.9875    0.3210 N.pl3     1 <0>         0.0465
     16 O2         -5.4716   -1.9769    0.4274 O.2       1 <0>        -0.1102
     17 O3         -5.2784    0.1179    0.2694 O.3       1 <0>        -0.1111
     18 H1         -0.0624    6.1165   -0.9973 H         1 <0>         0.0803
     19 H2         -0.9804    6.0973    0.5275 H         1 <0>         0.0742
     20 H3          0.7991    6.1214    0.5602 H         1 <0>         0.0732
     21 H4          2.0790    4.1256    0.0608 H         1 <0>         0.1360
     22 H5          2.1243    1.6668    0.0504 H         1 <0>         0.1387
     23 H6         -2.1647    1.6087   -0.0400 H         1 <0>         0.1678
     24 H7         -2.1866    4.0679   -0.0185 H         1 <0>         0.1359
     25 H8         -0.4583   -2.7603    0.2219 H         1 <0>         0.2141
     26 H9         -3.0155   -3.3220    0.3957 H         1 <0>         0.1914
@<TRIPOS>BOND
     1    1    2 1
     2    1   18 1
     3    1   19 1
     4    1   20 1
     5    2    7 ar
     6    2    3 ar
     7    3    4 ar
     8    3   21 1
     9    4    5 ar
    10    4   22 1
    11    5    6 ar
    12    5    8 1
    13    6    7 ar
    14    6   23 1
    15    7   24 1
    16    8    9 2
    17    8   10 am
    18   10   14 1
    19   10   11 1
    20   11   12 2
    21   11   25 1
    22   12   13 1
    23   12   26 1
    24   13   14 2
    25   13   15 1
    26   15   16 2
    27   15   17 1
@<TRIPOS>MOLECULE
ZINC01705403
   54    55     0     0     0
SMALL
USER_CHARGES
4-[6-(4-amidinophenoxy)hexoxy]benzamidine
@<TRIPOS>ATOM
      1 C1          4.8032    0.3323   -0.0406 C.ar      1 <0>        -0.0190
      2 C2          3.9848    1.4408   -0.0268 C.ar      1 <0>        -0.1488
      3 C3          4.5384    2.7150   -0.0253 C.ar      1 <0>         0.2043
      4 C4          5.9181    2.8765   -0.0377 C.ar      1 <0>        -0.2120
      5 C5          6.7425    1.7724   -0.0515 C.ar      1 <0>        -0.0098
      6 C6          6.1898    0.4909   -0.0531 C.ar      1 <0>        -0.2029
      7 C7          7.0717   -0.6967   -0.0674 C.cat     1 <0>         0.6025
      8 N1          8.4406   -0.5384   -0.0797 N.pl3     1 <0>        -0.7845
      9 O1          3.7290    3.8050   -0.0116 O.3       1 <0>        -0.2970
     10 C8          4.3644    5.0850   -0.0108 C.3       1 <0>         0.0506
     11 C9          3.2993    6.1832    0.0054 C.3       1 <0>        -0.1220
     12 C10         3.9797    7.5535    0.0062 C.3       1 <0>        -0.1166
     13 C11         2.9145    8.6517    0.0223 C.3       1 <0>        -0.1166
     14 C12         3.5949   10.0222    0.0232 C.3       1 <0>        -0.1220
     15 C13         2.5297   11.1204    0.0394 C.3       1 <0>         0.0506
     16 O2          3.1652   12.4003    0.0401 O.3       1 <0>        -0.2970
     17 C14         2.3558   13.4904    0.0538 C.ar      1 <0>         0.2043
     18 C15         0.9759   13.3289    0.0604 C.ar      1 <0>        -0.2120
     19 C16         0.1516   14.4328    0.0792 C.ar      1 <0>        -0.0098
     20 C17         0.7043   15.7144    0.0808 C.ar      1 <0>        -0.2030
     21 C18         2.0910   15.8729    0.0688 C.ar      1 <0>        -0.0189
     22 C19         2.9094   14.7646    0.0553 C.ar      1 <0>        -0.1488
     23 C20        -0.1775   16.9021    0.0957 C.cat     1 <0>         0.6025
     24 N2         -1.5465   16.7437    0.1076 N.pl3     1 <0>        -0.7845
     25 H1          4.3722   -0.6580   -0.0414 H         1 <0>         0.1437
     26 H2          2.9117    1.3189   -0.0217 H         1 <0>         0.1568
     27 H3          6.3451    3.8685   -0.0369 H         1 <0>         0.1512
     28 H4          7.8150    1.8988   -0.0608 H         1 <0>         0.1407
     29 H5          7.0491   -2.7332   -0.0773 H         1 <0>         0.4443
     30 H6          8.8259    0.3519   -0.0791 H         1 <0>         0.4412
     31 H7          9.0189   -1.3171   -0.0892 H         1 <0>         0.4314
     32 H8          4.9948    5.1771    0.8736 H         1 <0>         0.0738
     33 H9          4.9776    5.1866   -0.9062 H         1 <0>         0.0737
     34 H10         2.6690    6.0910   -0.8791 H         1 <0>         0.0800
     35 H11         2.6861    6.0814    0.9008 H         1 <0>         0.0800
     36 H12         4.6100    7.6457    0.8907 H         1 <0>         0.0711
     37 H13         4.5928    7.6553   -0.8891 H         1 <0>         0.0711
     38 H14         2.2841    8.5596   -0.8621 H         1 <0>         0.0711
     39 H15         2.3012    8.5500    0.9178 H         1 <0>         0.0711
     40 H16         4.2252   10.1143    0.9077 H         1 <0>         0.0800
     41 H17         4.2080   10.1239   -0.8722 H         1 <0>         0.0800
     42 H18         1.8993   11.0283   -0.8451 H         1 <0>         0.0737
     43 H19         1.9165   11.0186    0.9347 H         1 <0>         0.0738
     44 H20         0.5490   12.3369    0.0547 H         1 <0>         0.1512
     45 H21        -0.9210   14.3065    0.0885 H         1 <0>         0.1407
     46 H22         2.5219   16.8633    0.0703 H         1 <0>         0.1436
     47 H23         3.9824   14.8864    0.0464 H         1 <0>         0.1568
     48 H24        -0.1550   18.9384    0.1069 H         1 <0>         0.4443
     49 H25        -1.9317   15.8535    0.1061 H         1 <0>         0.4412
     50 H26        -2.1247   17.5224    0.1173 H         1 <0>         0.4313
     51 N3          6.4838   -1.8841   -0.0676 N.pl3     1 <0>        -0.7629
     52 H27         5.4592   -1.9496   -0.0580 H         1 <0>         0.4590
     53 N4          0.4104   18.0894    0.0968 N.pl3     1 <0>        -0.7628
     54 H28         1.4350   18.1549    0.0876 H         1 <0>         0.4590
@<TRIPOS>BOND
     1    1    6 ar
     2    1    2 ar
     3    1   25 1
     4    2    3 ar
     5    2   26 1
     6    3    4 ar
     7    3    9 1
     8    4    5 ar
     9    4   27 1
    10    5    6 ar
    11    5   28 1
    12    6    7 1
    13    7    8 1
    14    7   51 2
    15    8   30 1
    16    8   31 1
    17    9   10 1
    18   10   11 1
    19   10   32 1
    20   10   33 1
    21   11   12 1
    22   11   34 1
    23   11   35 1
    24   12   13 1
    25   12   36 1
    26   12   37 1
    27   13   14 1
    28   13   38 1
    29   13   39 1
    30   14   15 1
    31   14   40 1
    32   14   41 1
    33   15   16 1
    34   15   42 1
    35   15   43 1
    36   16   17 1
    37   17   22 ar
    38   17   18 ar
    39   18   19 ar
    40   18   44 1
    41   19   20 ar
    42   19   45 1
    43   20   21 ar
    44   20   23 1
    45   21   22 ar
    46   21   46 1
    47   22   47 1
    48   23   24 1
    49   23   53 2
    50   24   49 1
    51   24   50 1
    52   29   51 1
    53   48   53 1
    54   51   52 1
    55   53   54 1
@<TRIPOS>MOLECULE
ZINC03777328
   64    65     0     0     0
SMALL
USER_CHARGES
N-(1-formyl-4-guanidino-butyl)-1-(2-methylamino-3-phenyl-propanoyl)-pyrrolidine-2-carboxamide
@<TRIPOS>ATOM
      1 C1         -1.1006   11.6463   -1.5224 C.3       1 <0>        -0.0461
      2 C2         -0.9630   11.2349    0.8596 C.3       1 <0>         0.0169
      3 H1         -1.8685   11.8411    0.8348 H         1 <0>         0.1593
      4 C3         -0.1070   11.6456    2.0594 C.3       1 <0>        -0.0917
      5 C4          0.1631   13.1271    2.0002 C.ar      1 <0>        -0.1306
      6 C5          1.2821   13.5998    1.3406 C.ar      1 <0>        -0.1429
      7 C6          1.5270   14.9590    1.2817 C.ar      1 <0>        -0.1028
      8 C7          0.6589   15.8448    1.8922 C.ar      1 <0>        -0.0988
      9 C8         -0.4574   15.3717    2.5563 C.ar      1 <0>        -0.1020
     10 C9         -0.7053   14.0129    2.6102 C.ar      1 <0>        -0.1030
     11 C10        -1.3357    9.7799    0.9830 C.2       1 <0>         0.5339
     12 O1         -0.6480    8.9310    0.4564 O.2       1 <0>        -0.5146
     13 N1         -2.4332    9.4221    1.6787 N.am      1 <0>        -0.5806
     14 C11        -3.3535   10.3459    2.3665 C.3       1 <0>         0.0813
     15 C12        -4.0211    9.4904    3.4720 C.3       1 <0>        -0.1308
     16 C13        -4.1772    8.1228    2.7560 C.3       1 <0>        -0.1285
     17 C14        -2.9104    8.0459    1.8779 C.3       1 <0>         0.1215
     18 H2         -2.1435    7.4566    2.3804 H         1 <0>         0.1120
     19 C15        -3.2460    7.4222    0.5477 C.2       1 <0>         0.5198
     20 O2         -3.1031    8.0595   -0.4742 O.2       1 <0>        -0.5250
     21 N2         -3.7051    6.1561    0.4937 N.am      1 <0>        -0.7157
     22 C16        -4.0313    5.5498   -0.7994 C.3       1 <0>         0.0934
     23 H3         -3.3938    5.8829   -1.4941 H         1 <0>         0.1097
     24 C17        -3.9188    4.0277   -0.6920 C.3       1 <0>        -0.1228
     25 C18        -2.4636    3.6418   -0.4196 C.3       1 <0>        -0.1314
     26 C19        -2.3512    2.1198   -0.3120 C.3       1 <0>         0.0917
     27 N3         -0.9577    1.7502   -0.0513 N.pl3     1 <0>        -0.7015
     28 C20        -0.6115    0.4267    0.0849 C.cat     1 <0>         0.7402
     29 N4          0.6971    0.0796    0.3240 N.pl3     1 <0>        -0.8052
     30 C21        -5.4384    5.9233   -1.1887 C.2       1 <0>         0.3242
     31 O3         -6.1004    6.6237   -0.4610 O.2       1 <0>        -0.4336
     32 H4         -1.7933   10.8080   -1.5941 H         1 <0>         0.1248
     33 H5         -1.6614   12.5704   -1.3827 H         1 <0>         0.1257
     34 H6         -0.5140   11.7124   -2.4389 H         1 <0>         0.1325
     35 H7         -0.6374   11.4096    2.9820 H         1 <0>         0.1230
     36 H8          0.8379   11.1028    2.0345 H         1 <0>         0.1070
     37 H9          1.9630   12.9075    0.8678 H         1 <0>         0.1239
     38 H10         2.3990   15.3287    0.7626 H         1 <0>         0.1351
     39 H11         0.8526   16.9065    1.8500 H         1 <0>         0.1355
     40 H12        -1.1357   16.0637    3.0331 H         1 <0>         0.1356
     41 H13        -1.5773   13.6432    3.1294 H         1 <0>         0.1298
     42 H14        -2.7994   11.1733    2.8098 H         1 <0>         0.0903
     43 H15        -4.1047   10.7206    1.6713 H         1 <0>         0.0881
     44 H16        -3.3726    9.4033    4.3438 H         1 <0>         0.0897
     45 H17        -4.9924    9.8998    3.7496 H         1 <0>         0.1035
     46 H18        -5.0756    8.1109    2.1388 H         1 <0>         0.0942
     47 H19        -4.1946    7.3082    3.4801 H         1 <0>         0.1022
     48 H20        -3.8194    5.6464    1.3110 H         1 <0>         0.4059
     49 H21        -4.2467    3.5723   -1.6264 H         1 <0>         0.1024
     50 H22        -4.5476    3.6737    0.1251 H         1 <0>         0.0872
     51 H23        -2.1357    4.0972    0.5149 H         1 <0>         0.0828
     52 H24        -1.8348    3.9957   -1.2365 H         1 <0>         0.0868
     53 H25        -2.6790    1.6643   -1.2465 H         1 <0>         0.0960
     54 H26        -2.9800    1.7658    0.5049 H         1 <0>         0.0946
     55 H27        -0.2787    2.4390    0.0213 H         1 <0>         0.4328
     56 H28        -1.3784   -1.4601    0.0685 H         1 <0>         0.4538
     57 H29         1.3761    0.7684    0.3966 H         1 <0>         0.4401
     58 H30         0.9414   -0.8543    0.4201 H         1 <0>         0.4409
     59 H31        -5.8548    5.5646   -2.1184 H         1 <0>         0.1125
     60 N5         -0.1904   11.4419   -0.3798 N.4       1 <0>        -0.5078
     61 H32         0.4084   12.2689   -0.2715 H         1 <0>         0.4350
     62 H33         0.3945   10.6166   -0.5561 H         1 <0>         0.4390
     63 N6         -1.5851   -0.4656   -0.0249 N.pl3     1 <0>        -0.7942
     64 H34        -2.5475   -0.1559   -0.2040 H         1 <0>         0.4551
@<TRIPOS>BOND
     1    1   32 1
     2    1   33 1
     3    1   34 1
     4    1   60 1
     5    2    3 1
     6    2    4 1
     7    2   11 1
     8    2   60 1
     9    4    5 1
    10    4   35 1
    11    4   36 1
    12    5   10 ar
    13    5    6 ar
    14    6    7 ar
    15    6   37 1
    16    7    8 ar
    17    7   38 1
    18    8    9 ar
    19    8   39 1
    20    9   10 ar
    21    9   40 1
    22   10   41 1
    23   11   12 2
    24   11   13 am
    25   13   17 1
    26   13   14 1
    27   14   15 1
    28   14   42 1
    29   14   43 1
    30   15   16 1
    31   15   44 1
    32   15   45 1
    33   16   17 1
    34   16   46 1
    35   16   47 1
    36   17   18 1
    37   17   19 1
    38   19   20 2
    39   19   21 am
    40   21   22 1
    41   21   48 1
    42   22   23 1
    43   22   24 1
    44   22   30 1
    45   24   25 1
    46   24   49 1
    47   24   50 1
    48   25   26 1
    49   25   51 1
    50   25   52 1
    51   26   27 1
    52   26   53 1
    53   26   54 1
    54   27   28 1
    55   27   55 1
    56   28   29 1
    57   28   63 2
    58   29   57 1
    59   29   58 1
    60   30   31 2
    61   30   59 1
    62   56   63 1
    63   60   61 1
    64   60   62 1
    65   63   64 1
@<TRIPOS>MOLECULE
ZINC00001763
   45    47     0     0     0
SMALL
USER_CHARGES

@<TRIPOS>ATOM
      1 C1          0.4307    0.2502    2.0676 C.ar      1 <0>        -0.0153
      2 C2          1.6219    0.9331    2.1617 C.ar      1 <0>        -0.1193
      3 C3          2.6604    0.6489    1.2801 C.ar      1 <0>         0.1435
      4 C4          2.4990   -0.3267    0.3008 C.ar      1 <0>        -0.1724
      5 C5          1.3106   -1.0136    0.2008 C.ar      1 <0>        -0.0246
      6 C6          0.2649   -0.7307    1.0849 C.ar      1 <0>        -0.1135
      7 C7         -1.0096   -1.4644    0.9809 C.2       1 <0>         0.5087
      8 O1         -1.9176   -1.2170    1.7498 O.2       1 <0>        -0.4667
      9 O2         -1.1677   -2.4095    0.0332 O.3       1 <0>        -0.2923
     10 C8         -2.3923   -2.9828   -0.0978 C.ar      1 <0>         0.1259
     11 C9         -3.4217   -2.2783   -0.7313 C.ar      1 <0>        -0.1152
     12 C10        -4.6566   -2.8272   -0.8764 C.ar      1 <0>        -0.0682
     13 C11        -4.9108   -4.1213   -0.3857 C.ar      1 <0>        -0.0654
     14 C12        -6.1763   -4.7102   -0.5232 C.ar      1 <0>        -0.0099
     15 C13        -6.3918   -5.9856   -0.0291 C.ar      1 <0>        -0.1471
     16 C14        -5.3542   -6.6900    0.6072 C.ar      1 <0>        -0.0871
     17 C15        -4.1234   -6.1364    0.7499 C.ar      1 <0>        -0.0773
     18 C16        -3.8721   -4.8419    0.2575 C.ar      1 <0>        -0.0011
     19 C17        -2.6050   -4.2525    0.3893 C.ar      1 <0>        -0.1091
     20 C18        -7.7236   -6.6117   -0.1711 C.cat     1 <0>         0.5988
     21 N1         -7.9368   -7.8384    0.3023 N.pl3     1 <0>        -0.7582
     22 N2         -8.7104   -5.9491   -0.7725 N.pl3     1 <0>        -0.7622
     23 N3          3.8650    1.3431    1.3778 N.pl3     1 <0>        -0.6394
     24 C19         5.0543    0.6734    1.2516 C.cat     1 <0>         0.7482
     25 N4          6.2001    1.3513    1.2200 N.pl3     1 <0>        -0.7807
     26 N5          5.0638   -0.6552    1.1604 N.pl3     1 <0>        -0.7908
     27 H1         -0.3734    0.4685    2.7547 H         1 <0>         0.1604
     28 H2          1.7507    1.6909    2.9204 H         1 <0>         0.1556
     29 H3          3.3071   -0.5447   -0.3817 H         1 <0>         0.1475
     30 H4          1.1857   -1.7701   -0.5598 H         1 <0>         0.1596
     31 H5         -3.2326   -1.2847   -1.1100 H         1 <0>         0.1435
     32 H6         -5.4416   -2.2709   -1.3671 H         1 <0>         0.1506
     33 H7         -6.9764   -4.1730   -1.0105 H         1 <0>         0.1463
     34 H8         -5.5392   -7.6838    0.9873 H         1 <0>         0.1398
     35 H9         -3.3365   -6.6892    1.2415 H         1 <0>         0.1528
     36 H10        -1.8032   -4.7903    0.8733 H         1 <0>         0.1514
     37 H11        -7.2183   -8.3209    0.7403 H         1 <0>         0.4450
     38 H12        -8.5551   -5.0558   -1.1173 H         1 <0>         0.4433
     39 H13        -9.5841   -6.3598   -0.8657 H         1 <0>         0.4357
     40 H14         3.8617    2.3003    1.5351 H         1 <0>         0.4483
     41 H15         6.1931    2.3190    1.2864 H         1 <0>         0.4449
     42 H16         4.2274   -1.1445    1.1178 H         1 <0>         0.4412
     43 H17         5.9073   -1.1336    1.1367 H         1 <0>         0.4432
     44 H18        -8.8106   -8.2492    0.2091 H         1 <0>         0.4352
     45 H19         7.0417    0.8773    1.1307 H         1 <0>         0.4465
@<TRIPOS>BOND
     1    1    6 ar
     2    1    2 ar
     3    1   27 1
     4    2    3 ar
     5    2   28 1
     6    3    4 ar
     7    3   23 1
     8    4    5 ar
     9    4   29 1
    10    5    6 ar
    11    5   30 1
    12    6    7 1
    13    7    8 2
    14    7    9 1
    15    9   10 1
    16   10   19 ar
    17   10   11 ar
    18   11   12 ar
    19   11   31 1
    20   12   13 ar
    21   12   32 1
    22   13   18 ar
    23   13   14 ar
    24   14   15 ar
    25   14   33 1
    26   15   16 ar
    27   15   20 1
    28   16   17 ar
    29   16   34 1
    30   17   18 ar
    31   17   35 1
    32   18   19 ar
    33   19   36 1
    34   20   21 2
    35   20   22 1
    36   21   37 1
    37   21   44 1
    38   22   38 1
    39   22   39 1
    40   23   24 1
    41   23   40 1
    42   24   25 2
    43   24   26 1
    44   25   41 1
    45   25   45 1
    46   26   42 1
    47   26   43 1
@<TRIPOS>MOLECULE
ZINC26665352
   60    61     0     0     0
SMALL
USER_CHARGES

@<TRIPOS>ATOM
      1 C1         -0.0167    1.3781    0.0096 C.ar      1 <0>        -0.1229
      2 C2          1.1709    2.0855    0.0021 C.ar      1 <0>        -0.1148
      3 C3          2.3773    1.4107   -0.0130 C.ar      1 <0>        -0.1207
      4 C4          2.3960    0.0285   -0.0201 C.ar      1 <0>        -0.0817
      5 C5          1.2084   -0.6789   -0.0117 C.ar      1 <0>        -0.1143
      6 C6          0.0021   -0.0041    0.0020 C.ar      1 <0>        -0.1150
      7 C7          3.7112   -0.7071   -0.0376 C.3       1 <0>        -0.1126
      8 C8          4.1714   -0.9633    1.3989 C.3       1 <0>         0.0913
      9 H1          3.3868   -1.4885    1.9436 H         1 <0>         0.1001
     10 C9          5.4216   -1.8045    1.3834 C.2       1 <0>         0.5484
     11 O1          6.5063   -1.2815    1.5277 O.2       1 <0>        -0.5183
     12 N1          5.3344   -3.1381    1.2093 N.am      1 <0>        -0.6013
     13 C10         4.0869   -3.8997    1.0167 C.3       1 <0>         0.0963
     14 C11         4.5188   -5.1859    0.2692 C.3       1 <0>        -0.1326
     15 C12         5.8911   -5.4838    0.9291 C.3       1 <0>        -0.1253
     16 C13         6.4681   -4.0736    1.1735 C.3       1 <0>         0.1237
     17 H2          6.9970   -4.0516    2.1263 H         1 <0>         0.0910
     18 C14         7.4059   -3.6997    0.0546 C.2       1 <0>         0.5127
     19 O2          7.1584   -2.7445   -0.6504 O.2       1 <0>        -0.5197
     20 N2          8.5196   -4.4270   -0.1625 N.am      1 <0>        -0.7022
     21 C15         9.4313   -4.0636   -1.2502 C.3       1 <0>         0.0786
     22 H3          9.4564   -2.9790   -1.3561 H         1 <0>         0.0826
     23 C16        10.8365   -4.5776   -0.9310 C.3       1 <0>        -0.1038
     24 C17        11.3746   -3.8561    0.3063 C.3       1 <0>        -0.1325
     25 C18        12.7799   -4.3701    0.6255 C.3       1 <0>         0.0910
     26 N3         13.2952   -3.6792    1.8102 N.pl3     1 <0>        -0.6873
     27 C19        14.5425   -3.9763    2.2867 C.cat     1 <0>         0.7374
     28 N4         15.0109   -3.3482    3.3638 N.pl3     1 <0>        -0.8001
     29 N5         15.2886   -4.8937    1.6736 N.pl3     1 <0>        -0.7951
     30 C20         8.9501   -4.6830   -2.5370 C.2       1 <0>         0.4880
     31 O3          7.9394   -5.3648   -2.5448 O.co2     1 <0>        -0.6781
     32 O4          9.5716   -4.5023   -3.5703 O.co2     1 <0>        -0.6967
     33 N6          4.4519    0.3186    2.0592 N.3       1 <0>        -0.8268
     34 H4         -0.9591    1.9053    0.0259 H         1 <0>         0.1218
     35 H5          1.1563    3.1654    0.0076 H         1 <0>         0.1226
     36 H6          3.3051    1.9634   -0.0196 H         1 <0>         0.1197
     37 H7          1.2231   -1.7588   -0.0176 H         1 <0>         0.1225
     38 H8         -0.9258   -0.5567    0.0082 H         1 <0>         0.1231
     39 H9          3.5884   -1.6586   -0.5549 H         1 <0>         0.0854
     40 H10         4.4573   -0.1052   -0.5563 H         1 <0>         0.0822
     41 H11         3.6436   -4.1516    1.9802 H         1 <0>         0.0729
     42 H12         3.3828   -3.3279    0.4122 H         1 <0>         0.0773
     43 H13         3.8142   -5.9978    0.4494 H         1 <0>         0.0882
     44 H14         4.6313   -4.9981   -0.7986 H         1 <0>         0.0856
     45 H15         5.7588   -6.0186    1.8696 H         1 <0>         0.0830
     46 H16         6.5311   -6.0475    0.2504 H         1 <0>         0.0975
     47 H17         8.7176   -5.1910    0.4014 H         1 <0>         0.3857
     48 H18        10.7961   -5.6495   -0.7376 H         1 <0>         0.0678
     49 H19        11.4948   -4.3858   -1.7784 H         1 <0>         0.0893
     50 H20        11.4151   -2.7841    0.1129 H         1 <0>         0.0802
     51 H21        10.7164   -4.0478    1.1537 H         1 <0>         0.0780
     52 H22        12.7395   -5.4420    0.8189 H         1 <0>         0.0928
     53 H23        13.4381   -4.1783   -0.2219 H         1 <0>         0.0944
     54 H24        12.7518   -3.0111    2.2566 H         1 <0>         0.4356
     55 H25        14.4676   -2.6801    3.8103 H         1 <0>         0.4398
     56 H26        14.9474   -5.3511    0.8892 H         1 <0>         0.4413
     57 H27        16.1731   -5.1043    2.0116 H         1 <0>         0.4375
     58 H28         5.1765    0.8250    1.5728 H         1 <0>         0.3508
     59 H29         3.6139    0.8748    2.1399 H         1 <0>         0.3480
     60 H30        15.8954   -3.5588    3.7017 H         1 <0>         0.4378
@<TRIPOS>BOND
     1    1    6 ar
     2    1    2 ar
     3    1   34 1
     4    2    3 ar
     5    2   35 1
     6    3    4 ar
     7    3   36 1
     8    4    5 ar
     9    4    7 1
    10    5    6 ar
    11    5   37 1
    12    6   38 1
    13    7    8 1
    14    7   39 1
    15    7   40 1
    16    8    9 1
    17    8   10 1
    18    8   33 1
    19   10   11 2
    20   10   12 am
    21   12   16 1
    22   12   13 1
    23   13   14 1
    24   13   41 1
    25   13   42 1
    26   14   15 1
    27   14   43 1
    28   14   44 1
    29   15   16 1
    30   15   45 1
    31   15   46 1
    32   16   17 1
    33   16   18 1
    34   18   19 2
    35   18   20 am
    36   20   21 1
    37   20   47 1
    38   21   22 1
    39   21   23 1
    40   21   30 1
    41   23   24 1
    42   23   48 1
    43   23   49 1
    44   24   25 1
    45   24   50 1
    46   24   51 1
    47   25   26 1
    48   25   52 1
    49   25   53 1
    50   26   27 1
    51   26   54 1
    52   27   28 2
    53   27   29 1
    54   28   55 1
    55   28   60 1
    56   29   56 1
    57   29   57 1
    58   30   31 2
    59   30   32 1
    60   33   58 1
    61   33   59 1
@<TRIPOS>MOLECULE
ZINC26665352
   61    62     0     0     0
SMALL
USER_CHARGES

@<TRIPOS>ATOM
      1 C1         -0.0167    1.3781    0.0096 C.ar      1 <0>        -0.1030
      2 C2          1.1709    2.0855    0.0021 C.ar      1 <0>        -0.1072
      3 C3          2.3773    1.4107   -0.0130 C.ar      1 <0>        -0.1388
      4 C4          2.3960    0.0285   -0.0201 C.ar      1 <0>        -0.1255
      5 C5          1.2084   -0.6789   -0.0117 C.ar      1 <0>        -0.1029
      6 C6          0.0021   -0.0041    0.0020 C.ar      1 <0>        -0.1048
      7 C7          3.7112   -0.7071   -0.0376 C.3       1 <0>        -0.0942
      8 C8          4.1714   -0.9633    1.3989 C.3       1 <0>         0.0198
      9 H1          3.3868   -1.4885    1.9436 H         1 <0>         0.1625
     10 C9          5.4216   -1.8045    1.3834 C.2       1 <0>         0.5263
     11 O1          6.5063   -1.2815    1.5277 O.2       1 <0>        -0.5156
     12 N1          5.3344   -3.1381    1.2093 N.am      1 <0>        -0.5755
     13 C10         4.0869   -3.8997    1.0167 C.3       1 <0>         0.0834
     14 C11         4.5188   -5.1859    0.2692 C.3       1 <0>        -0.1332
     15 C12         5.8911   -5.4838    0.9291 C.3       1 <0>        -0.1282
     16 C13         6.4681   -4.0736    1.1735 C.3       1 <0>         0.1207
     17 H2          6.9970   -4.0516    2.1263 H         1 <0>         0.1030
     18 C14         7.4059   -3.6997    0.0546 C.2       1 <0>         0.5125
     19 O2          7.1584   -2.7445   -0.6504 O.2       1 <0>        -0.5279
     20 N2          8.5196   -4.4270   -0.1625 N.am      1 <0>        -0.6938
     21 C15         9.4313   -4.0636   -1.2502 C.3       1 <0>         0.0782
     22 H3          9.4564   -2.9790   -1.3561 H         1 <0>         0.0842
     23 C16        10.8365   -4.5776   -0.9310 C.3       1 <0>        -0.1079
     24 C17        11.3746   -3.8561    0.3063 C.3       1 <0>        -0.1315
     25 C18        12.7799   -4.3701    0.6255 C.3       1 <0>         0.0797
     26 N3         13.2952   -3.6792    1.8102 N.pl3     1 <0>        -0.6535
     27 C19        14.4837   -3.9623    2.2643 C.cat     1 <0>         0.7356
     28 N4         15.2538   -4.9092    1.6314 N.pl3     1 <0>        -0.8116
     29 N5         14.9672   -3.3140    3.3760 N.pl3     1 <0>        -0.8186
     30 C20         8.9501   -4.6830   -2.5370 C.2       1 <0>         0.4869
     31 O3          7.9394   -5.3648   -2.5448 O.co2     1 <0>        -0.6789
     32 O4          9.5716   -4.5023   -3.5703 O.co2     1 <0>        -0.6880
     33 N6          4.4519    0.3186    2.0592 N.4       1 <0>        -0.6201
     34 H4         -0.9591    1.9053    0.0259 H         1 <0>         0.1322
     35 H5          1.1563    3.1654    0.0076 H         1 <0>         0.1321
     36 H6          3.3051    1.9634   -0.0196 H         1 <0>         0.1234
     37 H7          1.2231   -1.7588   -0.0176 H         1 <0>         0.1306
     38 H8         -0.9258   -0.5567    0.0082 H         1 <0>         0.1333
     39 H9          3.5884   -1.6586   -0.5549 H         1 <0>         0.1265
     40 H10         4.4573   -0.1052   -0.5563 H         1 <0>         0.1100
     41 H11         3.6436   -4.1516    1.9802 H         1 <0>         0.0870
     42 H12         3.3828   -3.3279    0.4122 H         1 <0>         0.0831
     43 H13         3.8142   -5.9978    0.4494 H         1 <0>         0.0984
     44 H14         4.6313   -4.9981   -0.7986 H         1 <0>         0.0919
     45 H15         5.7588   -6.0186    1.8696 H         1 <0>         0.0904
     46 H16         6.5311   -6.0475    0.2504 H         1 <0>         0.1062
     47 H17         8.7176   -5.1910    0.4014 H         1 <0>         0.3893
     48 H18        10.7961   -5.6495   -0.7376 H         1 <0>         0.0714
     49 H19        11.4948   -4.3858   -1.7784 H         1 <0>         0.0940
     50 H20        11.4151   -2.7841    0.1129 H         1 <0>         0.0805
     51 H21        10.7164   -4.0478    1.1537 H         1 <0>         0.0763
     52 H22        12.7395   -5.4420    0.8189 H         1 <0>         0.1018
     53 H23        13.4381   -4.1783   -0.2219 H         1 <0>         0.1038
     54 H24        14.9127   -5.3666    0.8470 H         1 <0>         0.4393
     55 H25        16.1383   -5.1199    1.9694 H         1 <0>         0.4372
     56 H26        14.4239   -2.6459    3.8225 H         1 <0>         0.4364
     57 H27        15.8517   -3.5246    3.7139 H         1 <0>         0.4376
     58 H28         3.6148    0.8819    2.0696 H         1 <0>         0.4388
     59 H29         4.7554    0.1497    3.0065 H         1 <0>         0.4378
     60 H30        12.7518   -3.0111    2.2566 H         1 <0>         0.4369
     61 H31         5.1782    0.8048    1.5550 H         1 <0>         0.4414
@<TRIPOS>BOND
     1    1    6 ar
     2    1    2 ar
     3    1   34 1
     4    2    3 ar
     5    2   35 1
     6    3    4 ar
     7    3   36 1
     8    4    5 ar
     9    4    7 1
    10    5    6 ar
    11    5   37 1
    12    6   38 1
    13    7    8 1
    14    7   39 1
    15    7   40 1
    16    8    9 1
    17    8   10 1
    18    8   33 1
    19   10   11 2
    20   10   12 am
    21   12   16 1
    22   12   13 1
    23   13   14 1
    24   13   41 1
    25   13   42 1
    26   14   15 1
    27   14   43 1
    28   14   44 1
    29   15   16 1
    30   15   45 1
    31   15   46 1
    32   16   17 1
    33   16   18 1
    34   18   19 2
    35   18   20 am
    36   20   21 1
    37   20   47 1
    38   21   22 1
    39   21   23 1
    40   21   30 1
    41   23   24 1
    42   23   48 1
    43   23   49 1
    44   24   25 1
    45   24   50 1
    46   24   51 1
    47   25   26 1
    48   25   52 1
    49   25   53 1
    50   26   27 2
    51   26   60 1
    52   27   28 1
    53   27   29 1
    54   28   54 1
    55   28   55 1
    56   29   56 1
    57   29   57 1
    58   30   31 2
    59   30   32 1
    60   33   58 1
    61   33   59 1
    62   33   61 1
@<TRIPOS>MOLECULE
ZINC26665352
   60    61     0     0     0
SMALL
USER_CHARGES
(2S)-2-[[(2S)-1-[(2S)-2-amino-3-phenyl-propanoyl]pyrrolidine-2-carbonyl]amino]-5-guanidino-pentanoic acid
@<TRIPOS>ATOM
      1 C1          7.0751   -5.1215    0.4478 C.ar      1 <0>        -0.1254
      2 C2          6.1128   -5.3493    1.4138 C.ar      1 <0>        -0.1217
      3 C3          5.0167   -4.5124    1.5082 C.ar      1 <0>        -0.0908
      4 C4          4.8827   -3.4478    0.6367 C.ar      1 <0>        -0.0662
      5 C5          5.8423   -3.2231   -0.3326 C.ar      1 <0>        -0.1199
      6 C6          6.9414   -4.0566   -0.4234 C.ar      1 <0>        -0.1218
      7 C7          3.6875   -2.5357    0.7394 C.3       1 <0>        -0.0669
      8 C8          4.0060   -1.3831    1.6940 C.3       1 <0>         0.0781
      9 H1          4.9303   -0.8675    1.3944 H         1 <0>         0.1004
     10 C9          2.8586   -0.4062    1.7025 C.2       1 <0>         0.5084
     11 O1          2.0472   -0.4316    2.6035 O.2       1 <0>        -0.5362
     12 N1          2.7341    0.4957    0.7087 N.am      1 <0>        -0.5982
     13 C10         3.6436    0.6363   -0.4430 C.3       1 <0>         0.0903
     14 C11         3.4683    2.1029   -0.9100 C.3       1 <0>        -0.1308
     15 C12         1.9475    2.3259   -0.6812 C.3       1 <0>        -0.1202
     16 C13         1.6682    1.5018    0.5933 C.3       1 <0>         0.1269
     17 H2          1.6636    2.1197    1.5033 H         1 <0>         0.0898
     18 C14         0.3294    0.8194    0.4793 C.2       1 <0>         0.5095
     19 O2          0.2624   -0.3914    0.4981 O.2       1 <0>        -0.5226
     20 N2         -0.7929    1.5545    0.3508 N.am      1 <0>        -0.7139
     21 C15        -2.0938    0.8910    0.2339 C.3       1 <0>         0.1083
     22 H3         -2.0583   -0.0196    0.8500 H         1 <0>         0.0873
     23 C16        -3.1945    1.8381    0.7160 C.3       1 <0>        -0.1046
     24 C17        -3.0129    2.1125    2.2102 C.3       1 <0>        -0.1374
     25 C18        -4.1136    3.0595    2.6923 C.3       1 <0>         0.0967
     26 N3         -3.9397    3.3223    4.1230 N.pl3     1 <0>        -0.6773
     27 C19        -3.6867    4.5319    4.5375 C.cat     1 <0>         0.7349
     28 N4         -3.7107    5.5817    3.6501 N.pl3     1 <0>        -0.8554
     29 N5         -3.3959    4.7579    5.8620 N.pl3     1 <0>        -0.8560
     30 C20        -2.3425    0.5234   -1.2062 C.2       1 <0>         0.4549
     31 O3         -1.5178    0.7885   -2.0485 O.co2     1 <0>        -0.6232
     32 O4         -3.4803   -0.0985   -1.5532 O.co2     1 <0>        -0.7642
     33 N6          4.2091   -1.9118    3.0494 N.3       1 <0>        -0.7973
     34 H4          7.9315   -5.7754    0.3740 H         1 <0>         0.1179
     35 H5          6.2173   -6.1813    2.0944 H         1 <0>         0.1188
     36 H6          4.2647   -4.6905    2.2627 H         1 <0>         0.1199
     37 H7          5.7355   -2.3939   -1.0163 H         1 <0>         0.1177
     38 H8          7.6933   -3.8785   -1.1779 H         1 <0>         0.1190
     39 H9          3.4476   -2.1322   -0.2554 H         1 <0>         0.0816
     40 H10         2.8260   -3.1020    1.1229 H         1 <0>         0.0813
     41 H11         4.6757    0.4314   -0.1223 H         1 <0>         0.0795
     42 H12         3.3548   -0.0784   -1.2277 H         1 <0>         0.0742
     43 H13         4.1004    2.7612   -0.2960 H         1 <0>         0.0771
     44 H14         3.7654    2.1896   -1.9656 H         1 <0>         0.0899
     45 H15         1.7510    3.3994   -0.5437 H         1 <0>         0.0886
     46 H16         1.3877    1.9595   -1.5544 H         1 <0>         0.0982
     47 H17        -0.7321    2.6527    0.3337 H         1 <0>         0.3997
     48 H18        -3.1334    2.7848    0.1593 H         1 <0>         0.0672
     49 H19        -4.1775    1.3750    0.5451 H         1 <0>         0.0945
     50 H20        -3.0739    1.1657    2.7669 H         1 <0>         0.0799
     51 H21        -2.0299    2.5756    2.3812 H         1 <0>         0.0720
     52 H22        -4.0526    4.0062    2.1355 H         1 <0>         0.0901
     53 H23        -5.0966    2.5964    2.5214 H         1 <0>         0.1115
     54 H24        -3.4972    6.6025    3.9999 H         1 <0>         0.4564
     55 H25        -3.9434    5.4008    2.5903 H         1 <0>         0.4595
     56 H26        -3.1824    5.7787    6.2118 H         1 <0>         0.4586
     57 H27        -3.3767    3.9179    6.5720 H         1 <0>         0.4599
     58 H28         4.4381   -1.0832    3.7357 H         1 <0>         0.3388
     59 H29        -4.0227    2.4987    4.8475 H         1 <0>         0.4651
     60 H30         3.2946   -2.4233    3.3843 H         1 <0>         0.3478
@<TRIPOS>BOND
     1    1    6 ar
     2    1    2 ar
     3    1   34 1
     4    2    3 ar
     5    2   35 1
     6    3    4 ar
     7    3   36 1
     8    4    5 ar
     9    4    7 1
    10    5    6 ar
    11    5   37 1
    12    6   38 1
    13    7    8 1
    14    7   39 1
    15    7   40 1
    16    8    9 1
    17    8   10 1
    18    8   33 1
    19   10   11 2
    20   10   12 am
    21   12   16 1
    22   12   13 1
    23   13   14 1
    24   13   41 1
    25   13   42 1
    26   14   15 1
    27   14   43 1
    28   14   44 1
    29   15   16 1
    30   15   45 1
    31   15   46 1
    32   16   17 1
    33   16   18 1
    34   18   19 2
    35   18   20 am
    36   20   21 1
    37   20   47 1
    38   21   22 1
    39   21   23 1
    40   21   30 1
    41   23   24 1
    42   23   48 1
    43   23   49 1
    44   24   25 1
    45   24   50 1
    46   24   51 1
    47   25   26 1
    48   25   52 1
    49   25   53 1
    50   26   27 2
    51   26   59 1
    52   27   28 1
    53   27   29 1
    54   28   54 1
    55   28   55 1
    56   29   56 1
    57   29   57 1
    58   30   31 2
    59   30   32 1
    60   33   58 1
    61   33   60 1
@<TRIPOS>MOLECULE
ZINC28238972
   64    68     0     0     0
SMALL
USER_CHARGES
2-(6-chloro-2-naphthyl)-N-[4-[2-(dimethylaminomethyl)phenyl]-2-fluoro-phenyl]-5-methyl-pyrazole-3-carboxamide
@<TRIPOS>ATOM
      1 C1         -3.6431   -2.1162   -0.1598 C.3       1 <0>        -0.0824
      2 C2         -3.3094   -0.7584    0.4022 C.2       1 <0>         0.0771
      3 C3         -4.1654    0.0386    1.1577 C.2       1 <0>        -0.1543
      4 C4         -3.4867    1.1981    1.4773 C.2       1 <0>         0.0109
      5 N1         -2.2393    1.0983    0.9206 N.pl3     1 <0>        -0.3191
      6 N2         -2.1685   -0.1313    0.2541 N.2       1 <0>        -0.2405
      7 C5         -1.2209    2.0554    0.9988 C.ar      1 <0>         0.1440
      8 C6         -0.6009    2.5045   -0.1734 C.ar      1 <0>        -0.1065
      9 C7          0.3906    3.4330   -0.1273 C.ar      1 <0>        -0.0670
     10 C8          0.8053    3.9547    1.1108 C.ar      1 <0>        -0.0375
     11 C9          1.8275    4.9158    1.1882 C.ar      1 <0>        -0.0899
     12 C10         2.2058    5.4019    2.4031 C.ar      1 <0>        -0.0212
     13 C11         1.5930    4.9598    3.5755 C.ar      1 <0>        -0.0972
     14 C12         0.6000    4.0303    3.5387 C.ar      1 <0>        -0.0808
     15 C13         0.1866    3.5018    2.3031 C.ar      1 <0>        -0.0339
     16 C14        -0.8389    2.5452    2.2279 C.ar      1 <0>        -0.1200
     17 Cl1         3.4687    6.5895    2.4936 Cl        1 <0>        -0.0534
     18 C15        -4.0051    2.3261    2.2652 C.2       1 <0>         0.5985
     19 O1         -5.0754    2.2289    2.8353 O.2       1 <0>        -0.4950
     20 N3         -3.2945    3.4677    2.3559 N.am      1 <0>        -0.6836
     21 C16        -3.7381    4.5035    3.1842 C.ar      1 <0>         0.1444
     22 C17        -5.0568    4.5261    3.6212 C.ar      1 <0>        -0.1264
     23 C18        -5.4951    5.5431    4.4426 C.ar      1 <0>        -0.1019
     24 C19        -4.6178    6.5562    4.8262 C.ar      1 <0>        -0.0901
     25 C20        -3.2963    6.5363    4.3830 C.ar      1 <0>        -0.1208
     26 C21        -2.8595    5.5134    3.5653 C.ar      1 <0>         0.0701
     27 F1         -1.5791    5.4929    3.1346 F         1 <0>        -0.1200
     28 C22        -5.0897    7.6540    5.7053 C.ar      1 <0>        -0.0281
     29 C23        -4.9594    8.9808    5.2989 C.ar      1 <0>        -0.0958
     30 C24        -5.4001    9.9979    6.1207 C.ar      1 <0>        -0.0846
     31 C25        -5.9709    9.7026    7.3459 C.ar      1 <0>        -0.1079
     32 C26        -6.1032    8.3878    7.7541 C.ar      1 <0>        -0.0854
     33 C27        -5.6702    7.3622    6.9380 C.ar      1 <0>        -0.1420
     34 C28        -5.8207    5.9298    7.3815 C.3       1 <0>         0.0376
     35 N4         -4.4927    5.3489    7.6200 N.4       1 <0>        -0.4035
     36 C29        -3.8304    5.9994    8.7585 C.3       1 <0>        -0.0492
     37 C30        -4.5819    3.8967    7.8225 C.3       1 <0>        -0.0506
     38 H1         -4.6704   -2.3883    0.1243 H         1 <0>         0.0874
     39 H2         -2.9417   -2.8620    0.2424 H         1 <0>         0.0850
     40 H3         -3.5609   -2.0894   -1.2564 H         1 <0>         0.0856
     41 H4         -5.1782   -0.2058    1.4423 H         1 <0>         0.1711
     42 H5         -0.9146    2.1074   -1.1275 H         1 <0>         0.1445
     43 H6          0.8595    3.7692   -1.0402 H         1 <0>         0.1503
     44 H7          2.3106    5.2676    0.2887 H         1 <0>         0.1471
     45 H8          1.9116    5.3607    4.5264 H         1 <0>         0.1390
     46 H9          0.1346    3.6968    4.4545 H         1 <0>         0.1347
     47 H10        -1.3215    2.1932    3.1277 H         1 <0>         0.1393
     48 H11        -2.3656    3.5847    1.7784 H         1 <0>         0.4414
     49 H12        -5.7381    3.7440    3.3204 H         1 <0>         0.1878
     50 H13        -6.5194    5.5574    4.7849 H         1 <0>         0.1414
     51 H14        -2.6149    7.3201    4.6793 H         1 <0>         0.1499
     52 H15        -4.5146    9.2125    4.3424 H         1 <0>         0.1364
     53 H16        -5.2996   11.0264    5.8068 H         1 <0>         0.1382
     54 H17        -6.3148   10.5017    7.9858 H         1 <0>         0.1376
     55 H18        -6.5499    8.1630    8.7114 H         1 <0>         0.1353
     56 H19        -6.4090    5.8934    8.3103 H         1 <0>         0.1370
     57 H20        -6.3367    5.3556    6.5979 H         1 <0>         0.1397
     58 H21        -2.8403    5.5462    8.9145 H         1 <0>         0.1233
     59 H22        -4.4415    5.8659    9.6633 H         1 <0>         0.1218
     60 H23        -3.7135    7.0731    8.5501 H         1 <0>         0.1228
     61 H24        -3.5757    3.4886    7.9985 H         1 <0>         0.1244
     62 H25        -5.0164    3.4277    6.9274 H         1 <0>         0.1242
     63 H26        -5.2204    3.6865    8.6932 H         1 <0>         0.1238
     64 H27        -3.8796    5.5282    6.7245 H         1 <0>         0.4369
@<TRIPOS>BOND
     1    1    2 1
     2    1   38 1
     3    1   39 1
     4    1   40 1
     5    2    6 2
     6    2    3 1
     7    3    4 2
     8    3   41 1
     9    4    5 1
    10    4   18 1
    11    5    6 1
    12    5    7 1
    13    7   16 ar
    14    7    8 ar
    15    8    9 ar
    16    8   42 1
    17    9   10 ar
    18    9   43 1
    19   10   15 ar
    20   10   11 ar
    21   11   12 ar
    22   11   44 1
    23   12   13 ar
    24   12   17 1
    25   13   14 ar
    26   13   45 1
    27   14   15 ar
    28   14   46 1
    29   15   16 ar
    30   16   47 1
    31   18   19 2
    32   18   20 am
    33   20   21 1
    34   20   48 1
    35   21   26 ar
    36   21   22 ar
    37   22   23 ar
    38   22   49 1
    39   23   24 ar
    40   23   50 1
    41   24   25 ar
    42   24   28 1
    43   25   26 ar
    44   25   51 1
    45   26   27 1
    46   28   33 ar
    47   28   29 ar
    48   29   30 ar
    49   29   52 1
    50   30   31 ar
    51   30   53 1
    52   31   32 ar
    53   31   54 1
    54   32   33 ar
    55   32   55 1
    56   33   34 1
    57   34   35 1
    58   34   56 1
    59   34   57 1
    60   35   36 1
    61   35   37 1
    62   35   64 1
    63   36   58 1
    64   36   59 1
    65   36   60 1
    66   37   61 1
    67   37   62 1
    68   37   63 1
@<TRIPOS>MOLECULE
ZINC05751469
   34    36     0     0     0
SMALL
USER_CHARGES
1,3-bis(p-tolyl)-1,3-diazetidine-2,4-dione
@<TRIPOS>ATOM
      1 C1          6.6004    2.2531   -0.0495 C.3       1 <0>        -0.1162
      2 C2          5.0936    2.2326   -0.0352 C.ar      1 <0>        -0.0936
      3 C3          4.3874    3.4213   -0.0215 C.ar      1 <0>        -0.0889
      4 C4          3.0064    3.4057   -0.0084 C.ar      1 <0>        -0.1306
      5 C5          2.3272    2.1949   -0.0084 C.ar      1 <0>         0.1579
      6 C6          3.0390    1.0030   -0.0159 C.ar      1 <0>        -0.1306
      7 C7          4.4199    1.0250   -0.0352 C.ar      1 <0>        -0.0889
      8 N1          0.9256    2.1758    0.0049 N.am      1 <0>        -0.5632
      9 C8         -0.0144    1.2099    0.0087 C.2       1 <0>         0.7348
     10 O1          0.0021   -0.0041    0.0020 O.2       1 <0>        -0.4357
     11 N2         -0.9802    2.1499    0.0169 N.am      1 <0>        -0.5632
     12 C9         -0.0402    3.1157    0.0192 C.2       1 <0>         0.7348
     13 O2         -0.0567    4.3297    0.0259 O.2       1 <0>        -0.4357
     14 C10        -2.3820    2.1308    0.0213 C.ar      1 <0>         0.1579
     15 C11        -3.0611    0.9201    0.0112 C.ar      1 <0>        -0.1306
     16 C12        -4.4422    0.9045    0.0218 C.ar      1 <0>        -0.0889
     17 C13        -5.1484    2.0933    0.0306 C.ar      1 <0>        -0.0936
     18 C14        -4.4747    3.3008    0.0345 C.ar      1 <0>        -0.0889
     19 C15        -3.0937    3.3228    0.0301 C.ar      1 <0>        -0.1306
     20 C16        -6.6553    2.0728    0.0354 C.3       1 <0>        -0.1162
     21 H1          6.9735    2.2521    0.9746 H         1 <0>         0.0738
     22 H2          6.9708    1.3711   -0.5720 H         1 <0>         0.0693
     23 H3          6.9467    3.1509   -0.5615 H         1 <0>         0.0693
     24 H4          4.9163    4.3630   -0.0215 H         1 <0>         0.1350
     25 H5          2.4554    4.3345    0.0023 H         1 <0>         0.1364
     26 H6          2.5134    0.0595   -0.0114 H         1 <0>         0.1364
     27 H7          4.9741    0.0981   -0.0455 H         1 <0>         0.1350
     28 H8         -2.5101   -0.0087   -0.0002 H         1 <0>         0.1364
     29 H9         -4.9711   -0.0372    0.0184 H         1 <0>         0.1350
     30 H10        -5.0290    4.2277    0.0414 H         1 <0>         0.1350
     31 H11        -2.5681    4.2662    0.0332 H         1 <0>         0.1364
     32 H12        -7.0219    2.0731   -0.9911 H         1 <0>         0.0738
     33 H13        -7.0048    1.1754    0.5458 H         1 <0>         0.0693
     34 H14        -7.0290    2.9551    0.5549 H         1 <0>         0.0693
@<TRIPOS>BOND
     1    1    2 1
     2    1   21 1
     3    1   22 1
     4    1   23 1
     5    2    7 ar
     6    2    3 ar
     7    3    4 ar
     8    3   24 1
     9    4    5 ar
    10    4   25 1
    11    5    6 ar
    12    5    8 1
    13    6    7 ar
    14    6   26 1
    15    7   27 1
    16    8   12 am
    17    8    9 am
    18    9   10 2
    19    9   11 am
    20   11   12 am
    21   11   14 1
    22   12   13 2
    23   14   19 ar
    24   14   15 ar
    25   15   16 ar
    26   15   28 1
    27   16   17 ar
    28   16   29 1
    29   17   18 ar
    30   17   20 1
    31   18   19 ar
    32   18   30 1
    33   19   31 1
    34   20   32 1
    35   20   33 1
    36   20   34 1
@<TRIPOS>MOLECULE
ZINC29412147
   20    20     0     0     0
SMALL
USER_CHARGES
1,3-diethyl-1,3-diazetidine-2,4-dione
@<TRIPOS>ATOM
      1 C1         -1.3891   -1.4117   -1.4348 C.3       1 <0>        -0.1774
      2 C2         -1.0196   -1.0540    0.0061 C.3       1 <0>         0.1349
      3 N1          0.0021   -0.0041    0.0020 N.am      1 <0>        -0.6287
      4 C3         -0.0162    1.3436    0.0094 C.2       1 <0>         0.7311
      5 O1         -0.8863    2.1903    0.0184 O.2       1 <0>        -0.4628
      6 N2          1.3314    1.3619   -0.0033 N.am      1 <0>        -0.6286
      7 C4          1.3497    0.0143   -0.0108 C.2       1 <0>         0.7311
      8 O2          2.2197   -0.8325   -0.0233 O.2       1 <0>        -0.4628
      9 C5          2.3531    2.4118   -0.0078 C.3       1 <0>         0.1349
     10 C6          2.7225    2.7701    1.4330 C.3       1 <0>        -0.1774
     11 H1         -2.1563   -2.2000   -1.4317 H         1 <0>         0.0812
     12 H2         -0.4947   -1.7725   -1.9639 H         1 <0>         0.0630
     13 H3         -1.7820   -0.5197   -1.9448 H         1 <0>         0.0630
     14 H4         -1.9140   -0.6932    0.5352 H         1 <0>         0.0978
     15 H5         -0.6268   -1.9459    0.5161 H         1 <0>         0.0978
     16 H6          3.2475    2.0508   -0.5367 H         1 <0>         0.0979
     17 H7          1.9603    3.3035   -0.5182 H         1 <0>         0.0978
     18 H8          3.4897    3.5584    1.4296 H         1 <0>         0.0812
     19 H9          3.1153    1.8784    1.9434 H         1 <0>         0.0630
     20 H10         1.8281    3.1311    1.9619 H         1 <0>         0.0630
@<TRIPOS>BOND
     1    1    2 1
     2    1   11 1
     3    1   12 1
     4    1   13 1
     5    2    3 1
     6    2   14 1
     7    2   15 1
     8    3    7 am
     9    3    4 am
    10    4    5 2
    11    4    6 am
    12    6    7 am
    13    6    9 1
    14    7    8 2
    15    9   10 1
    16    9   16 1
    17    9   17 1
    18   10   18 1
    19   10   19 1
    20   10   20 1
@<TRIPOS>MOLECULE
ZINC01665651
   45    46     0     0     0
SMALL
USER_CHARGES
4-[3-(4-amidino-2-bromo-phenoxy)propoxy]-3-bromo-benzamidine
@<TRIPOS>ATOM
      1 C1         -2.4793   -0.7812    0.0177 C.ar      1 <0>         0.0005
      2 C2         -1.1100   -0.6255    0.0107 C.ar      1 <0>        -0.2031
      3 C3         -0.5539    0.6472    0.0118 C.ar      1 <0>         0.2244
      4 C4         -1.3757    1.7682    0.0248 C.ar      1 <0>        -0.1336
      5 C5         -2.7463    1.6196    0.0369 C.ar      1 <0>         0.0061
      6 C6         -3.3078    0.3418    0.0362 C.ar      1 <0>        -0.1915
      7 C7         -4.7779    0.1782    0.0491 C.cat     1 <0>         0.6043
      8 N1         -5.3307   -1.0842    0.0484 N.pl3     1 <0>        -0.7807
      9 Br1        -0.6132    3.4986    0.0257 Br        1 <0>         0.0159
     10 O1          0.7957    0.7968   -0.0006 O.3       1 <0>        -0.2793
     11 C8          1.5806   -0.3972   -0.0142 C.3       1 <0>         0.0556
     12 C9          3.0661   -0.0310   -0.0267 C.3       1 <0>        -0.1262
     13 C10         3.9065   -1.3094   -0.0413 C.3       1 <0>         0.0556
     14 O2          5.2940   -0.9672   -0.0529 O.3       1 <0>        -0.2793
     15 C11         6.1821   -1.9943   -0.0667 C.ar      1 <0>         0.2244
     16 C12         5.7247   -3.3058   -0.0689 C.ar      1 <0>        -0.2017
     17 C13         6.6231   -4.3507   -0.0833 C.ar      1 <0>        -0.0045
     18 C14         7.9942   -4.0903   -0.0957 C.ar      1 <0>        -0.1917
     19 C15         8.4510   -2.7715   -0.0934 C.ar      1 <0>         0.0112
     20 C16         7.5468   -1.7308   -0.0843 C.ar      1 <0>        -0.1349
     21 Br2         8.1637    0.0568   -0.0884 Br        1 <0>         0.0155
     22 C17         8.9612   -5.2097   -0.1108 C.cat     1 <0>         0.6045
     23 N2         10.3148   -4.9508   -0.1229 N.pl3     1 <0>        -0.7786
     24 H1         -2.9107   -1.7712    0.0127 H         1 <0>         0.1484
     25 H2         -0.4685   -1.4943   -0.0004 H         1 <0>         0.1590
     26 H3         -3.3846    2.4908    0.0464 H         1 <0>         0.1526
     27 H4         -6.5257    1.2234    0.0700 H         1 <0>         0.4475
     28 H5         -4.7559   -1.8655    0.0396 H         1 <0>         0.4414
     29 H6         -6.2948   -1.1915    0.0569 H         1 <0>         0.4338
     30 H7          1.3595   -0.9877    0.8749 H         1 <0>         0.0806
     31 H8          1.3423   -0.9785   -0.9048 H         1 <0>         0.0806
     32 H9          3.2873    0.5595   -0.9158 H         1 <0>         0.0991
     33 H10         3.3045    0.5504    0.8641 H         1 <0>         0.0991
     34 H11         3.6853   -1.8997    0.8479 H         1 <0>         0.0806
     35 H12         3.6683   -1.8907   -0.9319 H         1 <0>         0.0806
     36 H13         4.6637   -3.5069   -0.0598 H         1 <0>         0.1594
     37 H14         6.2666   -5.3701   -0.0854 H         1 <0>         0.1469
     38 H15         9.5113   -2.5664   -0.1034 H         1 <0>         0.1544
     39 H16         9.0888   -7.2423   -0.1218 H         1 <0>         0.4471
     40 H17        10.6333   -4.0347   -0.1217 H         1 <0>         0.4431
     41 H18        10.9488   -5.6848   -0.1328 H         1 <0>         0.4341
     42 N3         -5.5074    1.2841    0.0608 N.pl3     1 <0>        -0.7586
     43 H19        -5.0479    2.2023    0.0607 H         1 <0>         0.4599
     44 N4          8.4624   -6.4371   -0.1118 N.pl3     1 <0>        -0.7607
     45 H20         7.4454   -6.5780   -0.1025 H         1 <0>         0.4581
@<TRIPOS>BOND
     1    1    6 ar
     2    1    2 ar
     3    1   24 1
     4    2    3 ar
     5    2   25 1
     6    3    4 ar
     7    3   10 1
     8    4    5 ar
     9    4    9 1
    10    5    6 ar
    11    5   26 1
    12    6    7 1
    13    7    8 1
    14    7   42 2
    15    8   28 1
    16    8   29 1
    17   10   11 1
    18   11   12 1
    19   11   30 1
    20   11   31 1
    21   12   13 1
    22   12   32 1
    23   12   33 1
    24   13   14 1
    25   13   34 1
    26   13   35 1
    27   14   15 1
    28   15   20 ar
    29   15   16 ar
    30   16   17 ar
    31   16   36 1
    32   17   18 ar
    33   17   37 1
    34   18   19 ar
    35   18   22 1
    36   19   20 ar
    37   19   38 1
    38   20   21 1
    39   22   23 1
    40   22   44 2
    41   23   40 1
    42   23   41 1
    43   27   42 1
    44   39   44 1
    45   42   43 1
    46   44   45 1
@<TRIPOS>MOLECULE
ZINC00590184
   47    49     0     0     0
SMALL
USER_CHARGES

@<TRIPOS>ATOM
      1 C1         11.1027   13.7545   -3.0789 C.ar      1 <0>        -0.0724
      2 C2         12.2217   12.9357   -3.0926 C.ar      1 <0>        -0.1481
      3 C3         12.0526   11.5643   -3.0976 C.ar      1 <0>         0.1052
      4 N1         10.8453   11.0334   -3.0844 N.ar      1 <0>        -0.4537
      5 C4          9.7592   11.7810   -3.0764 C.ar      1 <0>         0.0588
      6 C5          9.8503   13.1602   -3.0707 C.ar      1 <0>        -0.1297
      7 C6          8.4030   11.1241   -3.0671 C.3       1 <0>         0.3425
      8 C7          8.5727    9.6036   -3.0758 C.3       1 <0>         0.1136
      9 N2          7.2542    8.9650   -3.0668 N.pl3     1 <0>        -0.6883
     10 C8          7.1534    7.5786   -3.0724 C.2       1 <0>         0.3638
     11 C9          5.8388    6.9298   -3.0696 C.2       1 <0>         0.5047
     12 O1          4.8155    7.5932   -3.0622 O.2       1 <0>        -0.5133
     13 N3          5.7874    5.5790   -3.0703 N.am      1 <0>        -0.4646
     14 C10         6.9523    4.8705   -3.0843 C.2       1 <0>         0.0791
     15 C11         8.1479    5.5027   -3.0918 C.2       1 <0>         0.0568
     16 N4          8.2368    6.8316   -3.0859 N.2       1 <0>        -0.4851
     17 Cl1         6.9001    3.1353   -3.0932 Cl        1 <0>        -0.0191
     18 C12         4.4969    4.8855   -3.0622 C.3       1 <0>         0.0717
     19 C13         4.0672    4.6406   -1.6387 C.2       1 <0>         0.5078
     20 O2          4.7697    5.0090   -0.7213 O.2       1 <0>        -0.5150
     21 N5          2.9022    4.0121   -1.3851 N.am      1 <0>        -0.7180
     22 C14         2.4845    3.7739   -0.0013 C.3       1 <0>         0.1741
     23 C15         1.1571    3.0605    0.0070 C.ar      1 <0>         0.0757
     24 C16        -0.0157    3.7965    0.0217 C.ar      1 <0>         0.0686
     25 C17        -1.2325    3.1280    0.0297 C.ar      1 <0>        -0.1094
     26 C18        -1.2234    1.7418    0.0173 C.ar      1 <0>        -0.1315
     27 C19        -0.0126    1.0758    0.0080 C.ar      1 <0>         0.0911
     28 N6          1.1252    1.7425    0.0007 N.ar      1 <0>        -0.4405
     29 F1          0.0235    5.1469    0.0277 F         1 <0>        -0.1214
     30 F2          7.6854   11.5198   -4.2010 F         1 <0>        -0.1806
     31 F3          7.7063   11.5089   -1.9165 F         1 <0>        -0.1802
     32 H1         11.2044   14.8297   -3.0751 H         1 <0>         0.1455
     33 H2         13.2130   13.3644   -3.0989 H         1 <0>         0.1454
     34 H3         12.9190   10.9196   -3.1082 H         1 <0>         0.1690
     35 H4          8.9571   13.7672   -3.0596 H         1 <0>         0.1427
     36 H5          9.1318    9.2953   -2.1924 H         1 <0>         0.1102
     37 H6          9.1155    9.3037   -3.9723 H         1 <0>         0.1104
     38 H7          6.4516    9.5096   -3.0568 H         1 <0>         0.4220
     39 H8          9.0539    4.9148   -3.1033 H         1 <0>         0.1820
     40 H9          4.5936    3.9322   -3.5817 H         1 <0>         0.1298
     41 H10         3.7510    5.5000   -3.5663 H         1 <0>         0.1361
     42 H11         2.3404    3.7174   -2.1189 H         1 <0>         0.4036
     43 H12         2.3879    4.7273    0.5182 H         1 <0>         0.0909
     44 H13         3.2304    3.1594    0.5028 H         1 <0>         0.0967
     45 H14        -2.1638    3.6748    0.0408 H         1 <0>         0.1527
     46 H15        -2.1512    1.1890    0.0188 H         1 <0>         0.1508
     47 H16         0.0021   -0.0041    0.0020 H         1 <0>         0.1697
@<TRIPOS>BOND
     1    1    6 ar
     2    1    2 ar
     3    1   32 1
     4    2    3 ar
     5    2   33 1
     6    3    4 ar
     7    3   34 1
     8    4    5 ar
     9    5    6 ar
    10    5    7 1
    11    6   35 1
    12    7    8 1
    13    7   30 1
    14    7   31 1
    15    8    9 1
    16    8   36 1
    17    8   37 1
    18    9   10 1
    19    9   38 1
    20   10   16 2
    21   10   11 1
    22   11   12 2
    23   11   13 am
    24   13   14 1
    25   13   18 1
    26   14   15 2
    27   14   17 1
    28   15   16 1
    29   15   39 1
    30   18   19 1
    31   18   40 1
    32   18   41 1
    33   19   20 2
    34   19   21 am
    35   21   22 1
    36   21   42 1
    37   22   23 1
    38   22   43 1
    39   22   44 1
    40   23   28 ar
    41   23   24 ar
    42   24   25 ar
    43   24   29 1
    44   25   26 ar
    45   25   45 1
    46   26   27 ar
    47   26   46 1
    48   27   28 ar
    49   27   47 1
@<TRIPOS>MOLECULE
ZINC13808154
   26    26     0     0     0
SMALL
USER_CHARGES

@<TRIPOS>ATOM
      1 C1         -0.0168    1.3849    0.0097 C.ar      1 <0>        -0.2172
      2 C2          1.1707    2.0901    0.0021 C.ar      1 <0>         0.0322
      3 C3          2.3774    1.4150   -0.0135 C.ar      1 <0>        -0.7379
      4 C4          2.3998    0.0323   -0.0211 C.ar      1 <0>         0.0260
      5 C5          1.2161   -0.6790   -0.0137 C.ar      1 <0>        -0.2168
      6 C6          0.0021   -0.0041    0.0020 C.ar      1 <0>         0.2728
      7 N1         -1.1970   -0.7204    0.0101 N.pl3     1 <0>        -0.8637
      8 S1          3.8900    2.3186   -0.0243 S.o2      1 <0>         2.7001
      9 O1          4.8717    1.4606   -0.5894 O.2       1 <0>        -0.9428
     10 O2          3.5945    3.5988   -0.5657 O.2       1 <0>        -0.9432
     11 N2          4.3264    2.5618    1.5546 N.pl3     1 <0>        -0.9005
     12 N3          4.5541    1.4645    2.3954 N.pl3     1 <0>        -0.5517
     13 C7          5.7497    1.3471    3.0639 C.2       1 <0>         0.6388
     14 N4          6.6714    2.2567    2.9154 N.2       1 <0>        -0.8116
     15 N5          5.9731    0.2704    3.8889 N.pl3     1 <0>        -0.8423
     16 H1         -0.9589    1.9127    0.0260 H         1 <0>         0.1324
     17 H2          1.1567    3.1700    0.0080 H         1 <0>         0.1412
     18 H3          3.3440   -0.4918   -0.0333 H         1 <0>         0.1408
     19 H4          1.2342   -1.7588   -0.0200 H         1 <0>         0.1325
     20 H5         -2.0441   -0.2480    0.0210 H         1 <0>         0.4048
     21 H6         -1.1825   -1.6903    0.0047 H         1 <0>         0.4047
     22 H7          4.4243    3.4639    1.8973 H         1 <0>         0.4217
     23 H8          3.8682    0.7876    2.5059 H         1 <0>         0.4104
     24 H9          5.2872   -0.4066    3.9994 H         1 <0>         0.4033
     25 H10         6.8167    0.1876    4.3606 H         1 <0>         0.4238
     26 H11         6.5137    3.0165    2.3333 H         1 <0>         0.3423
@<TRIPOS>BOND
     1    1    6 ar
     2    1    2 ar
     3    1   16 1
     4    2    3 ar
     5    2   17 1
     6    3    4 ar
     7    3    8 1
     8    4    5 ar
     9    4   18 1
    10    5    6 ar
    11    5   19 1
    12    6    7 1
    13    7   20 1
    14    7   21 1
    15    8    9 2
    16    8   10 2
    17    8   11 1
    18   11   12 1
    19   11   22 1
    20   12   13 1
    21   12   23 1
    22   13   14 2
    23   13   15 1
    24   14   26 1
    25   15   24 1
    26   15   25 1
@<TRIPOS>MOLECULE
ZINC13808154
   26    26     0     0     0
SMALL
USER_CHARGES

@<TRIPOS>ATOM
      1 C1         -0.0168    1.3849    0.0097 C.ar      1 <0>        -0.2212
      2 C2          1.1707    2.0901    0.0021 C.ar      1 <0>         0.0252
      3 C3          2.3774    1.4150   -0.0135 C.ar      1 <0>        -0.7214
      4 C4          2.3998    0.0323   -0.0211 C.ar      1 <0>         0.0429
      5 C5          1.2161   -0.6790   -0.0137 C.ar      1 <0>        -0.2211
      6 C6          0.0021   -0.0041    0.0020 C.ar      1 <0>         0.2665
      7 N1         -1.1970   -0.7204    0.0101 N.pl3     1 <0>        -0.8681
      8 S1          3.8900    2.3186   -0.0243 S.o2      1 <0>         2.7304
      9 O1          4.8717    1.4606   -0.5894 O.2       1 <0>        -0.9509
     10 O2          3.5945    3.5988   -0.5657 O.2       1 <0>        -0.9650
     11 N2          4.3264    2.5618    1.5546 N.pl3     1 <0>        -0.9562
     12 N3          4.5541    1.4645    2.3954 N.2       1 <0>        -0.3803
     13 C7          4.8963    1.6552    3.6338 C.2       1 <0>         0.5916
     14 N4          5.0364    2.9462    4.1242 N.pl3     1 <0>        -0.8902
     15 N5          5.1219    0.5680    4.4669 N.pl3     1 <0>        -0.8445
     16 H1         -0.9589    1.9127    0.0260 H         1 <0>         0.1280
     17 H2          1.1567    3.1700    0.0080 H         1 <0>         0.1363
     18 H3          3.3440   -0.4918   -0.0333 H         1 <0>         0.1412
     19 H4          1.2342   -1.7588   -0.0200 H         1 <0>         0.1289
     20 H5         -2.0441   -0.2480    0.0210 H         1 <0>         0.4022
     21 H6         -1.1825   -1.6903    0.0047 H         1 <0>         0.4027
     22 H7          4.4243    3.4639    1.8973 H         1 <0>         0.3859
     23 H8          5.0240   -0.3341    4.1242 H         1 <0>         0.4201
     24 H9          5.3775    0.7105    5.3917 H         1 <0>         0.4087
     25 H10         4.8788    3.7059    3.5421 H         1 <0>         0.4074
     26 H11         5.2920    3.0887    5.0491 H         1 <0>         0.4008
@<TRIPOS>BOND
     1    1    6 ar
     2    1    2 ar
     3    1   16 1
     4    2    3 ar
     5    2   17 1
     6    3    4 ar
     7    3    8 1
     8    4    5 ar
     9    4   18 1
    10    5    6 ar
    11    5   19 1
    12    6    7 1
    13    7   20 1
    14    7   21 1
    15    8    9 2
    16    8   10 2
    17    8   11 1
    18   11   12 1
    19   11   22 1
    20   12   13 2
    21   13   14 1
    22   13   15 1
    23   14   25 1
    24   14   26 1
    25   15   23 1
    26   15   24 1
@<TRIPOS>MOLECULE
ZINC13808154
   26    26     0     0     0
SMALL
USER_CHARGES

@<TRIPOS>ATOM
      1 C1         -0.0168    1.3849    0.0097 C.ar      1 <0>        -0.2174
      2 C2          1.1707    2.0901    0.0021 C.ar      1 <0>         0.0323
      3 C3          2.3774    1.4150   -0.0135 C.ar      1 <0>        -0.7389
      4 C4          2.3998    0.0323   -0.0211 C.ar      1 <0>         0.0243
      5 C5          1.2161   -0.6790   -0.0137 C.ar      1 <0>        -0.2175
      6 C6          0.0021   -0.0041    0.0020 C.ar      1 <0>         0.2710
      7 N1         -1.1970   -0.7204    0.0101 N.pl3     1 <0>        -0.8648
      8 S1          3.8900    2.3186   -0.0243 S.o2      1 <0>         2.7022
      9 O1          4.8717    1.4606   -0.5894 O.2       1 <0>        -0.9464
     10 O2          3.5945    3.5988   -0.5657 O.2       1 <0>        -0.9454
     11 N2          4.3264    2.5618    1.5546 N.pl3     1 <0>        -0.8807
     12 N3          4.5541    1.4645    2.3954 N.pl3     1 <0>        -0.5054
     13 C7          5.7497    1.3471    3.0639 C.2       1 <0>         0.6352
     14 N4          6.6714    2.2567    2.9154 N.2       1 <0>        -0.8107
     15 N5          5.9731    0.2704    3.8889 N.pl3     1 <0>        -0.8919
     16 H1         -0.9589    1.9127    0.0260 H         1 <0>         0.1318
     17 H2          1.1567    3.1700    0.0080 H         1 <0>         0.1417
     18 H3          3.3440   -0.4918   -0.0333 H         1 <0>         0.1403
     19 H4          1.2342   -1.7588   -0.0200 H         1 <0>         0.1315
     20 H5         -2.0441   -0.2480    0.0210 H         1 <0>         0.4044
     21 H6         -1.1825   -1.6903    0.0047 H         1 <0>         0.4041
     22 H7          4.4243    3.4639    1.8973 H         1 <0>         0.4276
     23 H8          3.8682    0.7876    2.5059 H         1 <0>         0.4247
     24 H9          5.2872   -0.4066    3.9994 H         1 <0>         0.3910
     25 H10         6.8167    0.1876    4.3606 H         1 <0>         0.4135
     26 H11         7.5149    2.1739    3.3870 H         1 <0>         0.3434
@<TRIPOS>BOND
     1    1    6 ar
     2    1    2 ar
     3    1   16 1
     4    2    3 ar
     5    2   17 1
     6    3    4 ar
     7    3    8 1
     8    4    5 ar
     9    4   18 1
    10    5    6 ar
    11    5   19 1
    12    6    7 1
    13    7   20 1
    14    7   21 1
    15    8    9 2
    16    8   10 2
    17    8   11 1
    18   11   12 1
    19   11   22 1
    20   12   13 1
    21   12   23 1
    22   13   14 2
    23   13   15 1
    24   14   26 1
    25   15   24 1
    26   15   25 1
@<TRIPOS>MOLECULE
ZINC13808139
   24    24     0     0     0
SMALL
USER_CHARGES

@<TRIPOS>ATOM
      1 C1         -0.0167    1.3782    0.0096 C.ar      1 <0>        -0.0089
      2 C2          1.1707    2.0857    0.0021 C.ar      1 <0>        -0.1106
      3 C3          2.3778    1.4105   -0.0131 C.ar      1 <0>        -0.0355
      4 C4          2.3961    0.0274   -0.0207 C.ar      1 <0>        -0.1108
      5 C5          1.2082   -0.6793   -0.0132 C.ar      1 <0>        -0.0156
      6 C6          0.0021   -0.0041    0.0020 C.ar      1 <0>        -0.6712
      7 S1         -1.5119   -0.9055    0.0117 S.o2      1 <0>         2.6981
      8 O1         -1.2185   -2.1862    0.5528 O.2       1 <0>        -0.9314
      9 O2         -2.4926   -0.0462    0.5765 O.2       1 <0>        -0.9325
     10 N1         -1.9477   -1.1475   -1.5675 N.pl3     1 <0>        -0.8974
     11 N2         -1.0983   -1.8552   -2.4281 N.pl3     1 <0>        -0.5533
     12 C7         -1.5696   -2.9517   -3.1106 C.2       1 <0>         0.6392
     13 N3         -2.8066   -3.3327   -2.9571 N.2       1 <0>        -0.8087
     14 N4         -0.7361   -3.6462   -3.9550 N.pl3     1 <0>        -0.8414
     15 Br1         4.0026    2.3779   -0.0240 Br        1 <0>        -0.0267
     16 H1         -0.9592    1.9053    0.0260 H         1 <0>         0.1531
     17 H2          1.1559    3.1656    0.0077 H         1 <0>         0.1473
     18 H3          3.3384   -0.5003   -0.0329 H         1 <0>         0.1474
     19 H4          1.2224   -1.7592   -0.0191 H         1 <0>         0.1526
     20 H5         -2.7910   -0.7992   -1.8967 H         1 <0>         0.4249
     21 H6         -0.1778   -1.5716   -2.5423 H         1 <0>         0.4104
     22 H7          0.1844   -3.3626   -4.0693 H         1 <0>         0.4038
     23 H8         -1.0686   -4.4198   -4.4366 H         1 <0>         0.4247
     24 H9         -3.3947   -2.8427   -2.3613 H         1 <0>         0.3425
@<TRIPOS>BOND
     1    1    6 ar
     2    1    2 ar
     3    1   16 1
     4    2    3 ar
     5    2   17 1
     6    3    4 ar
     7    3   15 1
     8    4    5 ar
     9    4   18 1
    10    5    6 ar
    11    5   19 1
    12    6    7 1
    13    7    8 2
    14    7    9 2
    15    7   10 1
    16   10   11 1
    17   10   20 1
    18   11   12 1
    19   11   21 1
    20   12   13 2
    21   12   14 1
    22   13   24 1
    23   14   22 1
    24   14   23 1
@<TRIPOS>MOLECULE
ZINC13808139
   24    24     0     0     0
SMALL
USER_CHARGES

@<TRIPOS>ATOM
      1 C1         -0.0167    1.3782    0.0096 C.ar      1 <0>        -0.0149
      2 C2          1.1707    2.0857    0.0021 C.ar      1 <0>        -0.1148
      3 C3          2.3778    1.4105   -0.0131 C.ar      1 <0>        -0.0456
      4 C4          2.3961    0.0274   -0.0207 C.ar      1 <0>        -0.1148
      5 C5          1.2082   -0.6793   -0.0132 C.ar      1 <0>        -0.0149
      6 C6          0.0021   -0.0041    0.0020 C.ar      1 <0>        -0.6044
      7 S1         -1.5119   -0.9055    0.0117 S.o2      1 <0>         2.6020
      8 O1         -1.2185   -2.1862    0.5528 O.2       1 <0>        -1.0165
      9 O2         -2.4926   -0.0462    0.5765 O.2       1 <0>        -1.0165
     10 N1         -1.9477   -1.1475   -1.5675 N.2       1 <0>        -0.9435
     11 N2         -3.1245   -1.8447   -1.8705 N.pl3     1 <0>        -0.3955
     12 C7         -3.4664   -2.0345   -3.1092 C.cat     1 <0>         0.7040
     13 N3         -2.6657   -1.5465   -4.1327 N.pl3     1 <0>        -0.8141
     14 N4         -4.6323   -2.7253   -3.4093 N.pl3     1 <0>        -0.8516
     15 Br1         4.0026    2.3779   -0.0240 Br        1 <0>        -0.0403
     16 H1         -0.9592    1.9053    0.0260 H         1 <0>         0.1480
     17 H2          1.1559    3.1656    0.0077 H         1 <0>         0.1415
     18 H3          3.3384   -0.5003   -0.0329 H         1 <0>         0.1415
     19 H4          1.2224   -1.7592   -0.0191 H         1 <0>         0.1480
     20 H5         -5.1918   -3.0663   -2.6941 H         1 <0>         0.4236
     21 H6         -4.8876   -2.8671   -4.3343 H         1 <0>         0.4266
     22 H7         -1.8509   -1.0638   -3.9230 H         1 <0>         0.4409
     23 H8         -2.9210   -1.6883   -5.0577 H         1 <0>         0.4154
     24 H9         -3.6840   -2.1857   -1.1552 H         1 <0>         0.3958
@<TRIPOS>BOND
     1    1    6 ar
     2    1    2 ar
     3    1   16 1
     4    2    3 ar
     5    2   17 1
     6    3    4 ar
     7    3   15 1
     8    4    5 ar
     9    4   18 1
    10    5    6 ar
    11    5   19 1
    12    6    7 1
    13    7    8 2
    14    7    9 2
    15    7   10 1
    16   10   11 1
    17   11   12 2
    18   11   24 1
    19   12   13 1
    20   12   14 1
    21   13   22 1
    22   13   23 1
    23   14   20 1
    24   14   21 1
@<TRIPOS>MOLECULE
ZINC13808139
   25    25     0     0     0
SMALL
USER_CHARGES

@<TRIPOS>ATOM
      1 C1         -0.0167    1.3782    0.0096 C.ar      1 <0>        -0.0046
      2 C2          1.1707    2.0857    0.0021 C.ar      1 <0>        -0.1051
      3 C3          2.3778    1.4105   -0.0131 C.ar      1 <0>        -0.0286
      4 C4          2.3961    0.0274   -0.0207 C.ar      1 <0>        -0.1061
      5 C5          1.2082   -0.6793   -0.0132 C.ar      1 <0>        -0.0259
      6 C6          0.0021   -0.0041    0.0020 C.ar      1 <0>        -0.6825
      7 S1         -1.5119   -0.9055    0.0117 S.o2      1 <0>         2.6807
      8 O1         -1.2185   -2.1862    0.5528 O.2       1 <0>        -0.9098
      9 O2         -2.4926   -0.0462    0.5765 O.2       1 <0>        -0.8927
     10 N1         -1.9477   -1.1475   -1.5675 N.pl3     1 <0>        -0.9130
     11 N2         -1.0983   -1.8552   -2.4281 N.pl3     1 <0>        -0.4259
     12 C7         -1.4402   -2.0450   -3.6667 C.cat     1 <0>         0.7403
     13 N3         -2.6470   -1.5466   -4.1379 N.pl3     1 <0>        -0.8077
     14 N4         -0.5987   -2.7463   -4.5193 N.pl3     1 <0>        -0.8008
     15 Br1         4.0026    2.3779   -0.0240 Br        1 <0>        -0.0088
     16 H1         -0.9592    1.9053    0.0260 H         1 <0>         0.1565
     17 H2          1.1559    3.1656    0.0077 H         1 <0>         0.1531
     18 H3          3.3384   -0.5003   -0.0329 H         1 <0>         0.1525
     19 H4          1.2224   -1.7592   -0.0191 H         1 <0>         0.1520
     20 H5          0.2447   -3.0945   -4.1901 H         1 <0>         0.4418
     21 H6         -0.8540   -2.8880   -5.4444 H         1 <0>         0.4471
     22 H7         -3.2351   -1.0566   -3.5421 H         1 <0>         0.4345
     23 H8         -2.9023   -1.6884   -5.0629 H         1 <0>         0.4455
     24 H9         -0.2550   -2.2035   -2.0988 H         1 <0>         0.4646
     25 H10        -2.7910   -0.7992   -1.8967 H         1 <0>         0.4430
@<TRIPOS>BOND
     1    1    6 ar
     2    1    2 ar
     3    1   16 1
     4    2    3 ar
     5    2   17 1
     6    3    4 ar
     7    3   15 1
     8    4    5 ar
     9    4   18 1
    10    5    6 ar
    11    5   19 1
    12    6    7 1
    13    7    8 2
    14    7    9 2
    15    7   10 1
    16   10   11 1
    17   10   25 1
    18   11   12 2
    19   11   24 1
    20   12   13 1
    21   12   14 1
    22   13   22 1
    23   13   23 1
    24   14   20 1
    25   14   21 1
@<TRIPOS>MOLECULE
ZINC13808173
   30    31     0     0     0
SMALL
USER_CHARGES

@<TRIPOS>ATOM
      1 C1         -0.0164    1.3567    0.0095 C.ar      1 <0>        -0.0899
      2 C2          1.1686    2.0905    0.0021 C.ar      1 <0>        -0.1200
      3 C3          2.3785    1.4675   -0.0131 C.ar      1 <0>        -0.0895
      4 C4          2.4375    0.0634   -0.0211 C.ar      1 <0>        -0.0804
      5 C5          3.6681   -0.6153   -0.0364 C.ar      1 <0>         0.0250
      6 C6          3.6865   -1.9761   -0.0434 C.ar      1 <0>        -0.6770
      7 C7          2.5015   -2.7098   -0.0357 C.ar      1 <0>        -0.0503
      8 C8          1.2917   -2.0868   -0.0209 C.ar      1 <0>        -0.1130
      9 C9          1.2327   -0.6827   -0.0133 C.ar      1 <0>        -0.0103
     10 C10         0.0021   -0.0041    0.0020 C.ar      1 <0>        -0.1201
     11 S1          5.2315   -2.8230   -0.0631 S.o2      1 <0>         2.6960
     12 O1          4.9835   -4.1075   -0.6179 O.2       1 <0>        -0.9337
     13 O2          6.1807   -1.9234   -0.6189 O.2       1 <0>        -0.9375
     14 N1          5.6766   -3.0663    1.5133 N.pl3     1 <0>        -0.8984
     15 N2          4.8535   -3.8129    2.3664 N.pl3     1 <0>        -0.5522
     16 C11         5.3638   -4.8992    3.0370 C.2       1 <0>         0.6392
     17 N3          6.6135   -5.2344    2.8792 N.2       1 <0>        -0.8101
     18 N4          4.5560   -5.6319    3.8742 N.pl3     1 <0>        -0.8416
     19 H1         -0.9633    1.8757    0.0259 H         1 <0>         0.1303
     20 H2          1.1260    3.1696    0.0083 H         1 <0>         0.1307
     21 H3          3.2884    2.0491   -0.0194 H         1 <0>         0.1352
     22 H4          4.5943   -0.0599   -0.0428 H         1 <0>         0.1482
     23 H5          2.5441   -3.7890   -0.0419 H         1 <0>         0.1414
     24 H6          0.3816   -2.6684   -0.0154 H         1 <0>         0.1388
     25 H7         -0.9241   -0.5595    0.0082 H         1 <0>         0.1343
     26 H8          6.5072   -2.6918    1.8461 H         1 <0>         0.4235
     27 H9          3.9235   -3.5635    2.4839 H         1 <0>         0.4111
     28 H10         3.6261   -5.3824    3.9917 H         1 <0>         0.4037
     29 H11         4.9161   -6.3983    4.3473 H         1 <0>         0.4243
     30 H12         7.1834   -4.7174    2.2885 H         1 <0>         0.3422
@<TRIPOS>BOND
     1    1   10 ar
     2    1    2 ar
     3    1   19 1
     4    2    3 ar
     5    2   20 1
     6    3    4 ar
     7    3   21 1
     8    4    9 ar
     9    4    5 ar
    10    5    6 ar
    11    5   22 1
    12    6    7 ar
    13    6   11 1
    14    7    8 ar
    15    7   23 1
    16    8    9 ar
    17    8   24 1
    18    9   10 ar
    19   10   25 1
    20   11   12 2
    21   11   13 2
    22   11   14 1
    23   14   15 1
    24   14   26 1
    25   15   16 1
    26   15   27 1
    27   16   17 2
    28   16   18 1
    29   17   30 1
    30   18   28 1
    31   18   29 1
@<TRIPOS>MOLECULE
ZINC13808173
   30    31     0     0     0
SMALL
USER_CHARGES

@<TRIPOS>ATOM
      1 C1         -0.0164    1.3567    0.0095 C.ar      1 <0>        -0.0987
      2 C2          1.1686    2.0905    0.0021 C.ar      1 <0>        -0.1257
      3 C3          2.3785    1.4675   -0.0131 C.ar      1 <0>        -0.0899
      4 C4          2.4375    0.0634   -0.0211 C.ar      1 <0>        -0.0790
      5 C5          3.6681   -0.6153   -0.0364 C.ar      1 <0>         0.0127
      6 C6          3.6865   -1.9761   -0.0434 C.ar      1 <0>        -0.6117
      7 C7          2.5015   -2.7098   -0.0357 C.ar      1 <0>        -0.0388
      8 C8          1.2917   -2.0868   -0.0209 C.ar      1 <0>        -0.1251
      9 C9          1.2327   -0.6827   -0.0133 C.ar      1 <0>        -0.0161
     10 C10         0.0021   -0.0041    0.0020 C.ar      1 <0>        -0.1187
     11 S1          5.2315   -2.8230   -0.0631 S.o2      1 <0>         2.6013
     12 O1          4.9835   -4.1075   -0.6179 O.2       1 <0>        -1.0182
     13 O2          6.1807   -1.9234   -0.6189 O.2       1 <0>        -1.0206
     14 N1          5.6766   -3.0663    1.5133 N.2       1 <0>        -0.9445
     15 N2          6.8776   -3.7245    1.8085 N.pl3     1 <0>        -0.3943
     16 C11         7.2268   -3.9153    3.0450 C.cat     1 <0>         0.7023
     17 N3          6.4099   -3.4670    4.0739 N.pl3     1 <0>        -0.8145
     18 N4          8.4167   -4.5674    3.3375 N.pl3     1 <0>        -0.8522
     19 H1         -0.9633    1.8757    0.0259 H         1 <0>         0.1263
     20 H2          1.1260    3.1696    0.0083 H         1 <0>         0.1267
     21 H3          3.2884    2.0491   -0.0194 H         1 <0>         0.1317
     22 H4          4.5943   -0.0599   -0.0428 H         1 <0>         0.1438
     23 H5          2.5441   -3.7890   -0.0419 H         1 <0>         0.1378
     24 H6          0.3816   -2.6684   -0.0154 H         1 <0>         0.1339
     25 H7         -0.9241   -0.5595    0.0082 H         1 <0>         0.1306
     26 H8          8.9875   -4.8806    2.6185 H         1 <0>         0.4233
     27 H9          8.6775   -4.7099    4.2608 H         1 <0>         0.4263
     28 H10         5.5784   -3.0113    3.8696 H         1 <0>         0.4409
     29 H11         6.6707   -3.6095    4.9973 H         1 <0>         0.4150
     30 H12         7.4484   -4.0377    1.0895 H         1 <0>         0.3952
@<TRIPOS>BOND
     1    1   10 ar
     2    1    2 ar
     3    1   19 1
     4    2    3 ar
     5    2   20 1
     6    3    4 ar
     7    3   21 1
     8    4    9 ar
     9    4    5 ar
    10    5    6 ar
    11    5   22 1
    12    6    7 ar
    13    6   11 1
    14    7    8 ar
    15    7   23 1
    16    8    9 ar
    17    8   24 1
    18    9   10 ar
    19   10   25 1
    20   11   12 2
    21   11   13 2
    22   11   14 1
    23   14   15 1
    24   15   16 2
    25   15   30 1
    26   16   17 1
    27   16   18 1
    28   17   28 1
    29   17   29 1
    30   18   26 1
    31   18   27 1
@<TRIPOS>MOLECULE
ZINC13808173
   31    32     0     0     0
SMALL
USER_CHARGES

@<TRIPOS>ATOM
      1 C1         -0.0164    1.3567    0.0095 C.ar      1 <0>        -0.0795
      2 C2          1.1686    2.0905    0.0021 C.ar      1 <0>        -0.1111
      3 C3          2.3785    1.4675   -0.0131 C.ar      1 <0>        -0.0912
      4 C4          2.4375    0.0634   -0.0211 C.ar      1 <0>        -0.0806
      5 C5          3.6681   -0.6153   -0.0364 C.ar      1 <0>         0.0356
      6 C6          3.6865   -1.9761   -0.0434 C.ar      1 <0>        -0.6886
      7 C7          2.5015   -2.7098   -0.0357 C.ar      1 <0>        -0.0706
      8 C8          1.2917   -2.0868   -0.0209 C.ar      1 <0>        -0.0989
      9 C9          1.2327   -0.6827   -0.0133 C.ar      1 <0>        -0.0079
     10 C10         0.0021   -0.0041    0.0020 C.ar      1 <0>        -0.1212
     11 S1          5.2315   -2.8230   -0.0631 S.o2      1 <0>         2.6771
     12 O1          4.9835   -4.1075   -0.6179 O.2       1 <0>        -0.9125
     13 O2          6.1807   -1.9234   -0.6189 O.2       1 <0>        -0.8988
     14 N1          5.6766   -3.0663    1.5133 N.pl3     1 <0>        -0.9140
     15 N2          4.8535   -3.8129    2.3664 N.pl3     1 <0>        -0.4232
     16 C11         5.2026   -4.0037    3.6029 C.cat     1 <0>         0.7392
     17 N3          6.3913   -3.4679    4.0791 N.pl3     1 <0>        -0.8087
     18 N4          4.3871   -4.7435    4.4482 N.pl3     1 <0>        -0.8017
     19 H1         -0.9633    1.8757    0.0259 H         1 <0>         0.1360
     20 H2          1.1260    3.1696    0.0083 H         1 <0>         0.1361
     21 H3          3.2884    2.0491   -0.0194 H         1 <0>         0.1384
     22 H4          4.5943   -0.0599   -0.0428 H         1 <0>         0.1509
     23 H5          2.5441   -3.7890   -0.0419 H         1 <0>         0.1397
     24 H6          0.3816   -2.6684   -0.0154 H         1 <0>         0.1429
     25 H7         -0.9241   -0.5595    0.0082 H         1 <0>         0.1385
     26 H8          3.5564   -5.1180    4.1154 H         1 <0>         0.4417
     27 H9          4.6478   -4.8860    5.3715 H         1 <0>         0.4465
     28 H10         6.9612   -2.9509    3.4884 H         1 <0>         0.4342
     29 H11         6.6520   -3.6103    5.0024 H         1 <0>         0.4449
     30 H12         4.0228   -4.1874    2.0337 H         1 <0>         0.4653
     31 H13         6.5072   -2.6918    1.8461 H         1 <0>         0.4416
@<TRIPOS>BOND
     1    1   10 ar
     2    1    2 ar
     3    1   19 1
     4    2    3 ar
     5    2   20 1
     6    3    4 ar
     7    3   21 1
     8    4    9 ar
     9    4    5 ar
    10    5    6 ar
    11    5   22 1
    12    6    7 ar
    13    6   11 1
    14    7    8 ar
    15    7   23 1
    16    8    9 ar
    17    8   24 1
    18    9   10 ar
    19   10   25 1
    20   11   12 2
    21   11   13 2
    22   11   14 1
    23   14   15 1
    24   14   31 1
    25   15   16 2
    26   15   30 1
    27   16   17 1
    28   16   18 1
    29   17   28 1
    30   17   29 1
    31   18   26 1
    32   18   27 1
@<TRIPOS>MOLECULE
ZINC26376363
   63    64     0     0     0
SMALL
USER_CHARGES

@<TRIPOS>ATOM
      1 C1         -0.0167    1.3781    0.0096 C.ar      1 <0>        -0.1203
      2 C2          1.1709    2.0855    0.0021 C.ar      1 <0>        -0.1205
      3 C3          2.3773    1.4107   -0.0130 C.ar      1 <0>        -0.1197
      4 C4          2.3960    0.0285   -0.0201 C.ar      1 <0>        -0.0747
      5 C5          1.2084   -0.6789   -0.0117 C.ar      1 <0>        -0.0905
      6 C6          0.0021   -0.0041    0.0020 C.ar      1 <0>        -0.1202
      7 C7          3.7112   -0.7071   -0.0376 C.3       1 <0>        -0.0651
      8 C8          4.1714   -0.9633    1.3989 C.3       1 <0>         0.0888
      9 H1          4.2087   -0.0191    1.9423 H         1 <0>         0.1040
     10 C9          5.5425   -1.5884    1.3832 C.2       1 <0>         0.5094
     11 O1          5.6646   -2.7862    1.5290 O.2       1 <0>        -0.5345
     12 N1          6.6331   -0.8163    1.2072 N.am      1 <0>        -0.6005
     13 C10         6.6299    0.6467    1.0255 C.3       1 <0>         0.0950
     14 C11         8.0362    1.1064    1.4846 C.3       1 <0>        -0.1340
     15 C12         8.9265   -0.0571    0.9737 C.3       1 <0>        -0.1263
     16 C13         8.0235   -1.2928    1.1711 C.3       1 <0>         0.1205
     17 H2          8.1570   -1.9838    0.3387 H         1 <0>         0.1004
     18 C14         8.3645   -1.9778    2.4694 C.2       1 <0>         0.5146
     19 O2          7.5314   -2.0641    3.3465 O.2       1 <0>        -0.5069
     20 N2          9.5952   -2.4945    2.6557 N.am      1 <0>        -0.7204
     21 C15         9.9267   -3.1605    3.9178 C.3       1 <0>         0.1087
     22 H3          9.0492   -3.6880    4.2917 H         1 <0>         0.1230
     23 C16        11.0616   -4.1597    3.6845 C.3       1 <0>        -0.1203
     24 C17        10.5771   -5.2736    2.7542 C.3       1 <0>        -0.1336
     25 C18        11.7120   -6.2729    2.5209 C.3       1 <0>         0.0929
     26 N3         11.2481   -7.3394    1.6301 N.pl3     1 <0>        -0.6950
     27 C19        12.0962   -8.3530    1.2774 C.cat     1 <0>         0.7422
     28 N4         11.6744   -9.3227    0.4675 N.pl3     1 <0>        -0.7940
     29 N5         13.3437   -8.3704    1.7437 N.pl3     1 <0>        -0.7931
     30 C20        10.3630   -2.1318    4.9290 C.2       1 <0>         0.3308
     31 O3         10.6553   -1.0169    4.5687 O.2       1 <0>        -0.4040
     32 C21        10.4347   -2.4945    6.3900 C.3       1 <0>        -0.0997
     33 Cl1        10.9850   -1.0632    7.3383 Cl        1 <0>        -0.1312
     34 N6          3.2263   -1.8723    2.0611 N.3       1 <0>        -0.8105
     35 H4         -0.9591    1.9053    0.0259 H         1 <0>         0.1205
     36 H5          1.1563    3.1654    0.0076 H         1 <0>         0.1209
     37 H6          3.3051    1.9634   -0.0196 H         1 <0>         0.1173
     38 H7          1.2231   -1.7588   -0.0176 H         1 <0>         0.1195
     39 H8         -0.9258   -0.5567    0.0082 H         1 <0>         0.1208
     40 H9          3.5884   -1.6586   -0.5549 H         1 <0>         0.0772
     41 H10         4.4573   -0.1052   -0.5563 H         1 <0>         0.0789
     42 H11         6.4721    0.8983   -0.0232 H         1 <0>         0.0802
     43 H12         5.8597    1.1044    1.6464 H         1 <0>         0.0842
     44 H13         8.3136    2.0479    1.0105 H         1 <0>         0.0955
     45 H14         8.0853    1.1882    2.5704 H         1 <0>         0.0799
     46 H15         9.1738    0.0801   -0.0790 H         1 <0>         0.0931
     47 H16         9.8312   -0.1434    1.5755 H         1 <0>         0.0900
     48 H17        10.2615   -2.4255    1.9542 H         1 <0>         0.4042
     49 H18        11.9085   -3.6476    3.2278 H         1 <0>         0.0879
     50 H19        11.3683   -4.5902    4.6378 H         1 <0>         0.0967
     51 H20         9.7302   -5.7858    3.2109 H         1 <0>         0.0893
     52 H21        10.2704   -4.8431    1.8010 H         1 <0>         0.0869
     53 H22        12.5589   -5.7607    2.0642 H         1 <0>         0.0944
     54 H23        12.0187   -6.7034    3.4742 H         1 <0>         0.0952
     55 H24        10.3396   -7.3268    1.2905 H         1 <0>         0.4369
     56 H25        10.7659   -9.3101    0.1278 H         1 <0>         0.4416
     57 H26        13.6508   -7.6642    2.3335 H         1 <0>         0.4396
     58 H27        13.9451   -9.0891    1.4935 H         1 <0>         0.4412
     59 H28         9.4484   -2.8027    6.7367 H         1 <0>         0.1288
     60 H29        11.1403   -3.3140    6.5267 H         1 <0>         0.1260
     61 H30         3.1738   -2.7554    1.5759 H         1 <0>         0.3485
     62 H31         3.4724   -2.0064    3.0304 H         1 <0>         0.3481
     63 H32        12.2758  -10.0415    0.2173 H         1 <0>         0.4416
@<TRIPOS>BOND
     1    1    6 ar
     2    1    2 ar
     3    1   35 1
     4    2    3 ar
     5    2   36 1
     6    3    4 ar
     7    3   37 1
     8    4    5 ar
     9    4    7 1
    10    5    6 ar
    11    5   38 1
    12    6   39 1
    13    7    8 1
    14    7   40 1
    15    7   41 1
    16    8    9 1
    17    8   10 1
    18    8   34 1
    19   10   11 2
    20   10   12 am
    21   12   16 1
    22   12   13 1
    23   13   14 1
    24   13   42 1
    25   13   43 1
    26   14   15 1
    27   14   44 1
    28   14   45 1
    29   15   16 1
    30   15   46 1
    31   15   47 1
    32   16   17 1
    33   16   18 1
    34   18   19 2
    35   18   20 am
    36   20   21 1
    37   20   48 1
    38   21   22 1
    39   21   23 1
    40   21   30 1
    41   23   24 1
    42   23   49 1
    43   23   50 1
    44   24   25 1
    45   24   51 1
    46   24   52 1
    47   25   26 1
    48   25   53 1
    49   25   54 1
    50   26   27 1
    51   26   55 1
    52   27   28 2
    53   27   29 1
    54   28   56 1
    55   28   63 1
    56   29   57 1
    57   29   58 1
    58   30   31 2
    59   30   32 1
    60   32   33 1
    61   32   59 1
    62   32   60 1
    63   34   61 1
    64   34   62 1
@<TRIPOS>MOLECULE
ZINC26376363
   63    64     0     0     0
SMALL
USER_CHARGES
(2S)-1-[(2R)-2-amino-3-phenyl-propanoyl]-N-[(1S)-1-(2-chloroacetyl)-4-guanidino-butyl]pyrrolidine-2-carboxamide
@<TRIPOS>ATOM
      1 C1         -7.5951   -5.8678    5.8583 C.ar      1 <0>        -0.1182
      2 C2         -7.2562   -6.0242    4.5273 C.ar      1 <0>        -0.1171
      3 C3         -6.0586   -5.5206    4.0552 C.ar      1 <0>        -0.1178
      4 C4         -5.1998   -4.8606    4.9141 C.ar      1 <0>        -0.0915
      5 C5         -5.5362   -4.7088    6.2462 C.ar      1 <0>        -0.1103
      6 C6         -6.7363   -5.2077    6.7172 C.ar      1 <0>        -0.1165
      7 C7         -3.8939   -4.3120    4.3995 C.3       1 <0>        -0.0680
      8 C8         -4.1003   -2.8762    3.9129 C.3       1 <0>         0.0781
      9 H1         -4.9206   -2.8221    3.1821 H         1 <0>         0.0575
     10 C9         -2.8265   -2.3702    3.2864 C.2       1 <0>         0.5451
     11 O1         -2.0837   -1.6502    3.9194 O.2       1 <0>        -0.5096
     12 N1         -2.5128   -2.7177    2.0225 N.am      1 <0>        -0.6081
     13 C10        -3.3206   -3.5827    1.1436 C.3       1 <0>         0.0879
     14 C11        -2.3105   -4.1662    0.1243 C.3       1 <0>        -0.1326
     15 C12        -1.3627   -2.9586   -0.1011 C.3       1 <0>        -0.1204
     16 C13        -1.3079   -2.2975    1.2923 C.3       1 <0>         0.1311
     17 H2         -0.4198   -2.5962    1.8686 H         1 <0>         0.1000
     18 C14        -1.2933   -0.7975    1.1476 C.2       1 <0>         0.5125
     19 O2         -2.1991   -0.1351    1.6077 O.2       1 <0>        -0.5135
     20 N2         -0.2736   -0.1922    0.5070 N.am      1 <0>        -0.7306
     21 C15        -0.2594    1.2660    0.3664 C.3       1 <0>         0.1104
     22 H3         -0.7156    1.6911    1.2726 H         1 <0>         0.1225
     23 C16         1.1830    1.7482    0.1993 C.3       1 <0>        -0.1203
     24 C17         1.9694    1.4573    1.4791 C.3       1 <0>        -0.1401
     25 C18         3.4118    1.9395    1.3121 C.3       1 <0>         0.0981
     26 N3          4.1648    1.6609    2.5375 N.pl3     1 <0>        -0.6841
     27 C19         5.1759    0.8389    2.5084 C.cat     1 <0>         0.7379
     28 N4          5.6169    0.3337    1.3082 N.pl3     1 <0>        -0.8545
     29 N5          5.8015    0.4771    3.6780 N.pl3     1 <0>        -0.8506
     30 C20        -1.0648    1.6617   -0.8443 C.2       1 <0>         0.3316
     31 O3         -1.3664    0.8307   -1.6669 O.2       1 <0>        -0.4063
     32 C21        -1.4937    3.0946   -1.0285 C.3       1 <0>        -0.1027
     33 Cl1        -2.4344    3.2484   -2.5589 Cl        1 <0>        -0.1331
     34 N6         -4.4597   -2.0203    5.0513 N.3       1 <0>        -0.8103
     35 H4         -8.5306   -6.2615    6.2273 H         1 <0>         0.1235
     36 H5         -7.9271   -6.5402    3.8563 H         1 <0>         0.1234
     37 H6         -5.7937   -5.6432    3.0154 H         1 <0>         0.1189
     38 H7         -4.8632   -4.1969    6.9182 H         1 <0>         0.1281
     39 H8         -7.0008   -5.0858    7.7572 H         1 <0>         0.1247
     40 H9         -3.1482   -4.3215    5.2081 H         1 <0>         0.0888
     41 H10        -3.5381   -4.9343    3.5652 H         1 <0>         0.0789
     42 H11        -3.7965   -4.3725    1.7433 H         1 <0>         0.0841
     43 H12        -4.0966   -2.9802    0.6488 H         1 <0>         0.0715
     44 H13        -1.8058   -5.0380    0.5663 H         1 <0>         0.0837
     45 H14        -2.8451   -4.4747   -0.7862 H         1 <0>         0.0935
     46 H15        -0.3799   -3.3215   -0.4364 H         1 <0>         0.0941
     47 H16        -1.7897   -2.2954   -0.8678 H         1 <0>         0.0896
     48 H17         0.5479   -0.7930    0.0898 H         1 <0>         0.4216
     49 H18         1.6501    1.2214   -0.6459 H         1 <0>         0.0859
     50 H19         1.1875    2.8308    0.0042 H         1 <0>         0.0962
     51 H20         1.5022    1.9841    2.3242 H         1 <0>         0.0884
     52 H21         1.9649    0.3747    1.6742 H         1 <0>         0.0817
     53 H22         3.8789    1.4128    0.4669 H         1 <0>         0.0919
     54 H23         3.4163    3.0221    1.1171 H         1 <0>         0.1109
     55 H24         6.4702   -0.3600    1.2837 H         1 <0>         0.4612
     56 H25         5.1164    0.6232    0.3724 H         1 <0>         0.4563
     57 H26         6.6548   -0.2166    3.6535 H         1 <0>         0.4632
     58 H27         5.4487    0.8813    4.6383 H         1 <0>         0.4628
     59 H28        -2.1222    3.4012   -0.1794 H         1 <0>         0.1298
     60 H29        -0.6044    3.7400   -1.0783 H         1 <0>         0.1275
     61 H30        -4.6081   -0.9880    4.7014 H         1 <0>         0.3465
     62 H31         3.8769    2.1454    3.4821 H         1 <0>         0.4678
     63 H32        -5.3894   -2.3897    5.5086 H         1 <0>         0.3492
@<TRIPOS>BOND
     1    1    6 ar
     2    1    2 ar
     3    1   35 1
     4    2    3 ar
     5    2   36 1
     6    3    4 ar
     7    3   37 1
     8    4    5 ar
     9    4    7 1
    10    5    6 ar
    11    5   38 1
    12    6   39 1
    13    7    8 1
    14    7   40 1
    15    7   41 1
    16    8    9 1
    17    8   10 1
    18    8   34 1
    19   10   11 2
    20   10   12 am
    21   12   16 1
    22   12   13 1
    23   13   14 1
    24   13   42 1
    25   13   43 1
    26   14   15 1
    27   14   44 1
    28   14   45 1
    29   15   16 1
    30   15   46 1
    31   15   47 1
    32   16   17 1
    33   16   18 1
    34   18   19 2
    35   18   20 am
    36   20   21 1
    37   20   48 1
    38   21   22 1
    39   21   23 1
    40   21   30 1
    41   23   24 1
    42   23   49 1
    43   23   50 1
    44   24   25 1
    45   24   51 1
    46   24   52 1
    47   25   26 1
    48   25   53 1
    49   25   54 1
    50   26   27 2
    51   26   62 1
    52   27   28 1
    53   27   29 1
    54   28   55 1
    55   28   56 1
    56   29   57 1
    57   29   58 1
    58   30   31 2
    59   30   32 1
    60   32   33 1
    61   32   59 1
    62   32   60 1
    63   34   61 1
    64   34   63 1
@<TRIPOS>MOLECULE
ZINC26376363
   64    65     0     0     0
SMALL
USER_CHARGES

@<TRIPOS>ATOM
      1 C1         -0.0167    1.3781    0.0096 C.ar      1 <0>        -0.0977
      2 C2          1.1709    2.0855    0.0021 C.ar      1 <0>        -0.1037
      3 C3          2.3773    1.4107   -0.0130 C.ar      1 <0>        -0.1027
      4 C4          2.3960    0.0285   -0.0201 C.ar      1 <0>        -0.1346
      5 C5          1.2084   -0.6789   -0.0117 C.ar      1 <0>        -0.1387
      6 C6          0.0021   -0.0041    0.0020 C.ar      1 <0>        -0.1053
      7 C7          3.7112   -0.7071   -0.0376 C.3       1 <0>        -0.0897
      8 C8          4.1714   -0.9633    1.3989 C.3       1 <0>         0.0176
      9 H1          4.2087   -0.0191    1.9423 H         1 <0>         0.1644
     10 C9          5.5425   -1.5884    1.3832 C.2       1 <0>         0.5312
     11 O1          5.6646   -2.7862    1.5290 O.2       1 <0>        -0.5154
     12 N1          6.6331   -0.8163    1.2072 N.am      1 <0>        -0.5807
     13 C10         6.6299    0.6467    1.0255 C.3       1 <0>         0.0837
     14 C11         8.0362    1.1064    1.4846 C.3       1 <0>        -0.1341
     15 C12         8.9265   -0.0571    0.9737 C.3       1 <0>        -0.1293
     16 C13         8.0235   -1.2928    1.1711 C.3       1 <0>         0.1216
     17 H2          8.1570   -1.9838    0.3387 H         1 <0>         0.1138
     18 C14         8.3645   -1.9778    2.4694 C.2       1 <0>         0.5187
     19 O2          7.5314   -2.0641    3.3465 O.2       1 <0>        -0.5196
     20 N2          9.5952   -2.4945    2.6557 N.am      1 <0>        -0.7139
     21 C15         9.9267   -3.1605    3.9178 C.3       1 <0>         0.1093
     22 H3          9.0492   -3.6880    4.2917 H         1 <0>         0.1247
     23 C16        11.0616   -4.1597    3.6845 C.3       1 <0>        -0.1246
     24 C17        10.5771   -5.2736    2.7542 C.3       1 <0>        -0.1329
     25 C18        11.7120   -6.2729    2.5209 C.3       1 <0>         0.0818
     26 N3         11.2481   -7.3394    1.6301 N.pl3     1 <0>        -0.6612
     27 C19        12.0562   -8.3053    1.2940 C.cat     1 <0>         0.7400
     28 N4         13.3439   -8.3232    1.7753 N.pl3     1 <0>        -0.8097
     29 N5         11.6209   -9.3062    0.4580 N.pl3     1 <0>        -0.8121
     30 C20        10.3630   -2.1318    4.9290 C.2       1 <0>         0.3308
     31 O3         10.6553   -1.0169    4.5687 O.2       1 <0>        -0.4032
     32 C21        10.4347   -2.4945    6.3900 C.3       1 <0>        -0.1026
     33 Cl1        10.9850   -1.0632    7.3383 Cl        1 <0>        -0.1248
     34 N6          3.2263   -1.8723    2.0611 N.4       1 <0>        -0.6206
     35 H4         -0.9591    1.9053    0.0259 H         1 <0>         0.1350
     36 H5          1.1563    3.1654    0.0076 H         1 <0>         0.1352
     37 H6          3.3051    1.9634   -0.0196 H         1 <0>         0.1299
     38 H7          1.2231   -1.7588   -0.0176 H         1 <0>         0.1231
     39 H8         -0.9258   -0.5567    0.0082 H         1 <0>         0.1343
     40 H9          3.5884   -1.6586   -0.5549 H         1 <0>         0.1066
     41 H10         4.4573   -0.1052   -0.5563 H         1 <0>         0.1232
     42 H11         6.4721    0.8983   -0.0232 H         1 <0>         0.0930
     43 H12         5.8597    1.1044    1.6464 H         1 <0>         0.0878
     44 H13         8.3136    2.0479    1.0105 H         1 <0>         0.1049
     45 H14         8.0853    1.1882    2.5704 H         1 <0>         0.0857
     46 H15         9.1738    0.0801   -0.0790 H         1 <0>         0.1010
     47 H16         9.8312   -0.1434    1.5755 H         1 <0>         0.0991
     48 H17        10.2615   -2.4255    1.9542 H         1 <0>         0.4083
     49 H18        11.9085   -3.6476    3.2278 H         1 <0>         0.0913
     50 H19        11.3683   -4.5902    4.6378 H         1 <0>         0.1013
     51 H20         9.7302   -5.7858    3.2109 H         1 <0>         0.0898
     52 H21        10.2704   -4.8431    1.8010 H         1 <0>         0.0860
     53 H22        12.5589   -5.7607    2.0642 H         1 <0>         0.1032
     54 H23        12.0187   -6.7034    3.4742 H         1 <0>         0.1042
     55 H24        13.6510   -7.6170    2.3651 H         1 <0>         0.4375
     56 H25        13.9453   -9.0420    1.5252 H         1 <0>         0.4408
     57 H26        10.7124   -9.2936    0.1184 H         1 <0>         0.4384
     58 H27        12.2223  -10.0250    0.2078 H         1 <0>         0.4412
     59 H28         9.4484   -2.8027    6.7367 H         1 <0>         0.1284
     60 H29        11.1403   -3.3140    6.5267 H         1 <0>         0.1281
     61 H30         2.3083   -1.4538    2.0716 H         1 <0>         0.4419
     62 H31         3.1918   -2.7463    1.5581 H         1 <0>         0.4397
     63 H32        10.3396   -7.3268    1.2905 H         1 <0>         0.4385
     64 H33         3.5298   -2.0413    3.0084 H         1 <0>         0.4419
@<TRIPOS>BOND
     1    1    6 ar
     2    1    2 ar
     3    1   35 1
     4    2    3 ar
     5    2   36 1
     6    3    4 ar
     7    3   37 1
     8    4    5 ar
     9    4    7 1
    10    5    6 ar
    11    5   38 1
    12    6   39 1
    13    7    8 1
    14    7   40 1
    15    7   41 1
    16    8    9 1
    17    8   10 1
    18    8   34 1
    19   10   11 2
    20   10   12 am
    21   12   16 1
    22   12   13 1
    23   13   14 1
    24   13   42 1
    25   13   43 1
    26   14   15 1
    27   14   44 1
    28   14   45 1
    29   15   16 1
    30   15   46 1
    31   15   47 1
    32   16   17 1
    33   16   18 1
    34   18   19 2
    35   18   20 am
    36   20   21 1
    37   20   48 1
    38   21   22 1
    39   21   23 1
    40   21   30 1
    41   23   24 1
    42   23   49 1
    43   23   50 1
    44   24   25 1
    45   24   51 1
    46   24   52 1
    47   25   26 1
    48   25   53 1
    49   25   54 1
    50   26   27 2
    51   26   63 1
    52   27   28 1
    53   27   29 1
    54   28   55 1
    55   28   56 1
    56   29   57 1
    57   29   58 1
    58   30   31 2
    59   30   32 1
    60   32   33 1
    61   32   59 1
    62   32   60 1
    63   34   61 1
    64   34   62 1
    65   34   64 1
@<TRIPOS>MOLECULE
ZINC03936607
   57    60     0     0     0
SMALL
USER_CHARGES

@<TRIPOS>ATOM
      1 C1         -0.0173    1.4248    0.0099 C.3       1 <0>         0.0244
      2 O1          0.0021   -0.0041    0.0020 O.3       1 <0>        -0.3145
      3 C2          0.6057   -0.6070   -1.0556 C.ar      1 <0>         0.1266
      4 C3          1.1742    0.1768   -2.0647 C.ar      1 <0>        -0.1670
      5 C4          1.7851   -0.3974   -3.1353 C.ar      1 <0>        -0.0816
      6 C5          1.8489   -1.7984   -3.2331 C.ar      1 <0>        -0.0381
      7 C6          2.4730   -2.4247   -4.3253 C.ar      1 <0>        -0.1076
      8 C7          2.5170   -3.7836   -4.3878 C.ar      1 <0>        -0.0476
      9 C8          1.9516   -4.5670   -3.3833 C.ar      1 <0>        -0.6460
     10 C9          1.3390   -3.9957   -2.3107 C.ar      1 <0>         0.0242
     11 C10         1.2739   -2.5950   -2.2114 C.ar      1 <0>        -0.0294
     12 C11         0.6543   -1.9705   -1.1164 C.ar      1 <0>        -0.1402
     13 S1          2.0305   -6.3231   -3.5041 S.o2      1 <0>         2.6870
     14 O2          0.9575   -6.8325   -2.7241 O.2       1 <0>        -0.9476
     15 O3          2.1818   -6.6288   -4.8836 O.2       1 <0>        -0.9485
     16 N1          3.4283   -6.8029   -2.7569 N.pl3     1 <0>        -1.0969
     17 C12         3.5963   -6.5979   -1.3161 C.3       1 <0>         0.1162
     18 H1          2.6253   -6.5357   -0.8248 H         1 <0>         0.1341
     19 C13         4.4414   -7.7380   -0.7021 C.3       1 <0>        -0.1337
     20 C14         5.2643   -6.9811    0.3639 C.3       1 <0>         0.0980
     21 N2          5.3375   -5.5941   -0.1101 N.am      1 <0>        -0.6148
     22 C15         4.4053   -5.3476   -1.0500 C.2       1 <0>         0.5017
     23 O4          4.2392   -4.2817   -1.6041 O.2       1 <0>        -0.5013
     24 C16         6.2997   -4.6033    0.3786 C.3       1 <0>         0.1597
     25 C17         7.5480   -4.6572   -0.4640 C.ar      1 <0>        -0.1016
     26 C18         8.5833   -5.5045   -0.1108 C.ar      1 <0>        -0.0414
     27 C19         9.7323   -5.5598   -0.8790 C.ar      1 <0>        -0.1120
     28 C20         9.8529   -4.7687   -2.0032 C.ar      1 <0>        -0.0571
     29 C21         8.8127   -3.9124   -2.3647 C.ar      1 <0>        -0.1595
     30 C22         7.6537   -3.8658   -1.5890 C.ar      1 <0>        -0.0417
     31 C23         8.9356   -3.0611   -3.5687 C.cat     1 <0>         0.6019
     32 N3         10.1336   -2.6345   -3.9630 N.pl3     1 <0>        -0.7591
     33 N4          7.8481   -2.7216   -4.2579 N.pl3     1 <0>        -0.7571
     34 H2          1.0053    1.8021    0.0021 H         1 <0>         0.0562
     35 H3         -0.5445    1.7859   -0.8732 H         1 <0>         0.0584
     36 H4         -0.5275    1.7763    0.9067 H         1 <0>         0.1056
     37 H5          1.1270    1.2534   -1.9928 H         1 <0>         0.1353
     38 H6          2.2191    0.2203   -3.9076 H         1 <0>         0.1344
     39 H7          2.9152   -1.8307   -5.1114 H         1 <0>         0.1294
     40 H8          2.9971   -4.2621   -5.2286 H         1 <0>         0.1322
     41 H9          0.9049   -4.6153   -1.5399 H         1 <0>         0.1398
     42 H10         0.2157   -2.5652   -0.3288 H         1 <0>         0.1396
     43 H11         4.1358   -7.2198   -3.2732 H         1 <0>         0.4220
     44 H12         3.8033   -8.4912   -0.2400 H         1 <0>         0.1095
     45 H13         5.0931   -8.1875   -1.4514 H         1 <0>         0.0944
     46 H14         4.7606   -7.0237    1.3296 H         1 <0>         0.0867
     47 H15         6.2648   -7.4069    0.4404 H         1 <0>         0.0858
     48 H16         5.8605   -3.6078    0.3141 H         1 <0>         0.1007
     49 H17         6.5519   -4.8226    1.4161 H         1 <0>         0.1028
     50 H18         8.4940   -6.1251    0.7686 H         1 <0>         0.1450
     51 H19        10.5369   -6.2231   -0.5981 H         1 <0>         0.1497
     52 H20        10.7508   -4.8122   -2.6018 H         1 <0>         0.1403
     53 H21         6.8430   -3.2083   -1.8663 H         1 <0>         0.1424
     54 H22        10.9259   -2.8818   -3.4609 H         1 <0>         0.4461
     55 H23         6.9753   -3.0324   -3.9706 H         1 <0>         0.4478
     56 H24         7.9286   -2.1636   -5.0471 H         1 <0>         0.4333
     57 H25        10.2142   -2.0764   -4.7523 H         1 <0>         0.4334
@<TRIPOS>BOND
     1    1    2 1
     2    1   34 1
     3    1   35 1
     4    1   36 1
     5    2    3 1
     6    3   12 ar
     7    3    4 ar
     8    4    5 ar
     9    4   37 1
    10    5    6 ar
    11    5   38 1
    12    6   11 ar
    13    6    7 ar
    14    7    8 ar
    15    7   39 1
    16    8    9 ar
    17    8   40 1
    18    9   10 ar
    19    9   13 1
    20   10   11 ar
    21   10   41 1
    22   11   12 ar
    23   12   42 1
    24   13   14 2
    25   13   15 2
    26   13   16 1
    27   16   17 1
    28   16   43 1
    29   17   18 1
    30   17   22 1
    31   17   19 1
    32   19   20 1
    33   19   44 1
    34   19   45 1
    35   20   21 1
    36   20   46 1
    37   20   47 1
    38   21   22 am
    39   21   24 1
    40   22   23 2
    41   24   25 1
    42   24   48 1
    43   24   49 1
    44   25   30 ar
    45   25   26 ar
    46   26   27 ar
    47   26   50 1
    48   27   28 ar
    49   27   51 1
    50   28   29 ar
    51   28   52 1
    52   29   30 ar
    53   29   31 1
    54   30   53 1
    55   31   32 2
    56   31   33 1
    57   32   54 1
    58   32   57 1
    59   33   55 1
    60   33   56 1
@<TRIPOS>MOLECULE
ZINC03873927
   24    24     0     0     0
SMALL
USER_CHARGES

@<TRIPOS>ATOM
      1 C1         -0.0168    1.3849    0.0097 C.ar      1 <0>        -0.2190
      2 C2          1.1707    2.0901    0.0021 C.ar      1 <0>         0.0297
      3 C3          2.3774    1.4150   -0.0135 C.ar      1 <0>        -0.6921
      4 C4          2.3998    0.0323   -0.0211 C.ar      1 <0>         0.0297
      5 C5          1.2161   -0.6790   -0.0137 C.ar      1 <0>        -0.2189
      6 C6          0.0021   -0.0041    0.0020 C.ar      1 <0>         0.2662
      7 N1         -1.1970   -0.7204    0.0101 N.pl3     1 <0>        -0.8673
      8 S1          3.8900    2.3186   -0.0243 S.o2      1 <0>         2.6539
      9 O1          4.8717    1.4606   -0.5894 O.2       1 <0>        -0.9933
     10 O2          3.5945    3.5988   -0.5657 O.2       1 <0>        -0.9933
     11 N2          4.3264    2.5618    1.5546 N.2       1 <0>        -1.0531
     12 C7          5.4204    3.2122    1.8357 C.2       1 <0>         0.7470
     13 N3          6.2121    3.6964    0.8213 N.pl3     1 <0>        -0.8802
     14 N4          5.7826    3.4141    3.1464 N.pl3     1 <0>        -0.8187
     15 H1         -0.9589    1.9127    0.0260 H         1 <0>         0.1305
     16 H2          1.1567    3.1700    0.0080 H         1 <0>         0.1387
     17 H3          3.3440   -0.4918   -0.0333 H         1 <0>         0.1387
     18 H4          1.2342   -1.7588   -0.0200 H         1 <0>         0.1305
     19 H5         -2.0441   -0.2480    0.0210 H         1 <0>         0.4029
     20 H6         -1.1825   -1.6903    0.0047 H         1 <0>         0.4029
     21 H7          5.9565    3.5539   -0.1035 H         1 <0>         0.4125
     22 H8          7.0263    4.1804    1.0305 H         1 <0>         0.4128
     23 H9          5.2240    3.0725    3.8621 H         1 <0>         0.4292
     24 H10         6.5968    3.8981    3.3556 H         1 <0>         0.4110
@<TRIPOS>BOND
     1    1    6 ar
     2    1    2 ar
     3    1   15 1
     4    2    3 ar
     5    2   16 1
     6    3    4 ar
     7    3    8 1
     8    4    5 ar
     9    4   17 1
    10    5    6 ar
    11    5   18 1
    12    6    7 1
    13    7   19 1
    14    7   20 1
    15    8    9 2
    16    8   10 2
    17    8   11 1
    18   11   12 2
    19   12   13 1
    20   12   14 1
    21   13   21 1
    22   13   22 1
    23   14   23 1
    24   14   24 1
@<TRIPOS>MOLECULE
ZINC14210470
   71    77     0     0     0
SMALL
USER_CHARGES
1-(3-amino-1,2-benzoxazol-5-yl)-6-[4-[2-[[(3R)-3-hydroxypyrrolidin-1-yl]methyl]phenyl]phenyl]-3-(trifluoromethyl)-4,5-dihydropyrazolo[5,4-c]pyridin-7-one
@<TRIPOS>ATOM
      1 C1          2.5269   -0.3459    1.2512 C.ar      1 <0>        -0.1099
      2 C2          3.5800    0.4940    0.9359 C.ar      1 <0>        -0.0814
      3 C3          3.3601    1.8451    0.7619 C.ar      1 <0>        -0.0977
      4 C4          2.0743    2.3634    0.9059 C.ar      1 <0>        -0.0241
      5 C5          1.0173    1.5127    1.2231 C.ar      1 <0>        -0.1497
      6 C6          1.2487    0.1626    1.3939 C.ar      1 <0>        -0.0843
      7 C7         -0.3770    2.0645    1.3733 C.3       1 <0>         0.0440
      8 C8         -0.5474    1.8538    3.7872 C.3       1 <0>        -0.0059
      9 C9         -1.4662    2.5526    4.8203 C.3       1 <0>        -0.1816
     10 C10        -2.5165    3.2276    3.8996 C.3       1 <0>         0.0940
     11 H1         -3.2954    2.5200    3.6155 H         1 <0>         0.0980
     12 C11        -1.6834    3.6449    2.6694 C.3       1 <0>        -0.0091
     13 O1         -3.0852    4.3733    4.5369 O.3       1 <0>        -0.5482
     14 C12         1.8317    3.8151    0.7206 C.ar      1 <0>        -0.0833
     15 C13         0.9018    4.2528   -0.2214 C.ar      1 <0>        -0.1046
     16 C14         0.6738    5.6021   -0.3878 C.ar      1 <0>        -0.1092
     17 C15         1.3785    6.5264    0.3746 C.ar      1 <0>         0.1573
     18 C16         2.3102    6.0924    1.3103 C.ar      1 <0>        -0.1005
     19 C17         2.5373    4.7438    1.4841 C.ar      1 <0>        -0.0937
     20 N1          1.1496    7.8938    0.2004 N.am      1 <0>        -0.5680
     21 C18        -0.1423    8.4414    0.5933 C.3       1 <0>         0.1173
     22 C19        -0.0225    9.7942    1.2988 C.3       1 <0>        -0.0729
     23 C20         0.9365   10.6575    0.5301 C.2       1 <0>        -0.1077
     24 C21         1.9688   10.1112   -0.2324 C.2       1 <0>        -0.0473
     25 N2          2.6381   11.1514   -0.7729 N.pl3     1 <0>        -0.1609
     26 N3          2.0804   12.2557   -0.4009 N.2       1 <0>        -0.2071
     27 C22         1.0503   12.0237    0.3852 C.2       1 <0>        -0.0460
     28 C23         0.1570   13.0629    1.0122 C.3       1 <0>         0.5619
     29 F1          0.6731   13.4302    2.2596 F         1 <0>        -0.1637
     30 F2          0.0969   14.1879    0.1828 F         1 <0>        -0.1603
     31 F3         -1.1283   12.5354    1.1763 F         1 <0>        -0.1640
     32 C24         3.7606   11.0495   -1.6053 C.ar      1 <0>         0.0623
     33 C25         4.8427   11.9080   -1.4207 C.ar      1 <0>        -0.0262
     34 C26         5.9545   11.8147   -2.2274 C.ar      1 <0>        -0.1141
     35 C27         5.9993   10.8671   -3.2436 C.ar      1 <0>         0.1282
     36 C28         4.9095   10.0045   -3.4366 C.ar      1 <0>        -0.1961
     37 C29         3.7894   10.1009   -2.6115 C.ar      1 <0>         0.0144
     38 C30         5.2627    9.1354   -4.5699 C.2       1 <0>         0.3867
     39 N4          6.4520    9.4886   -4.9717 N.2       1 <0>        -0.3464
     40 O2          6.9272   10.5523   -4.1716 O.3       1 <0>        -0.0795
     41 N5          4.4769    8.1274   -5.1104 N.pl3     1 <0>        -0.8122
     42 C31         2.1390    8.6560   -0.3212 C.2       1 <0>         0.6085
     43 O3          3.1202    8.1598   -0.8418 O.2       1 <0>        -0.4914
     44 H2          2.7035   -1.4028    1.3861 H         1 <0>         0.1378
     45 H3          4.5761    0.0914    0.8253 H         1 <0>         0.1385
     46 H4          4.1829    2.4998    0.5154 H         1 <0>         0.1367
     47 H5          0.4302   -0.4977    1.6398 H         1 <0>         0.1344
     48 H6         -0.5896    2.7442    0.5482 H         1 <0>         0.1389
     49 H7         -1.0953    1.2447    1.3630 H         1 <0>         0.1385
     50 H8         -0.9818    0.9044    3.4741 H         1 <0>         0.1361
     51 H9          0.4460    1.6974    4.2075 H         1 <0>         0.1345
     52 H10        -0.9136    3.2970    5.3937 H         1 <0>         0.1070
     53 H11        -1.9365    1.8238    5.4804 H         1 <0>         0.1205
     54 H12        -1.3928    4.6919    2.7562 H         1 <0>         0.1388
     55 H13        -2.2626    3.4953    1.7582 H         1 <0>         0.1421
     56 H14        -3.6187    4.1656    5.3162 H         1 <0>         0.4051
     57 H15         0.3573    3.5351   -0.8171 H         1 <0>         0.1357
     58 H16        -0.0500    5.9415   -1.1141 H         1 <0>         0.1378
     59 H17         2.8570    6.8122    1.9014 H         1 <0>         0.1339
     60 H18         3.2611    4.4070    2.2115 H         1 <0>         0.1371
     61 H19        -0.7585    8.5628   -0.2977 H         1 <0>         0.0807
     62 H20        -0.6335    7.7370    1.2646 H         1 <0>         0.0978
     63 H21        -0.9998   10.2757    1.3341 H         1 <0>         0.1174
     64 H22         0.3509    9.6460    2.3120 H         1 <0>         0.0992
     65 H23         4.8110   12.6490   -0.6357 H         1 <0>         0.1560
     66 H24         6.7900   12.4817   -2.0741 H         1 <0>         0.1605
     67 H25         2.9491    9.4383   -2.7571 H         1 <0>         0.1375
     68 H26         3.6013    7.9418   -4.7365 H         1 <0>         0.4165
     69 H27         4.8032    7.6083   -5.8620 H         1 <0>         0.4187
     70 N6         -0.4745    2.8016    2.6602 N.4       1 <0>        -0.3930
     71 H28         0.3556    3.3959    2.7697 H         1 <0>         0.4296
@<TRIPOS>BOND
     1    1    6 ar
     2    1    2 ar
     3    1   44 1
     4    2    3 ar
     5    2   45 1
     6    3    4 ar
     7    3   46 1
     8    4    5 ar
     9    4   14 1
    10    5    6 ar
    11    5    7 1
    12    6   47 1
    13    7   48 1
    14    7   49 1
    15    7   70 1
    16    8    9 1
    17    8   50 1
    18    8   51 1
    19    8   70 1
    20    9   10 1
    21    9   52 1
    22    9   53 1
    23   10   11 1
    24   10   12 1
    25   10   13 1
    26   12   54 1
    27   12   55 1
    28   12   70 1
    29   13   56 1
    30   14   19 ar
    31   14   15 ar
    32   15   16 ar
    33   15   57 1
    34   16   17 ar
    35   16   58 1
    36   17   18 ar
    37   17   20 1
    38   18   19 ar
    39   18   59 1
    40   19   60 1
    41   20   42 am
    42   20   21 1
    43   21   22 1
    44   21   61 1
    45   21   62 1
    46   22   23 1
    47   22   63 1
    48   22   64 1
    49   23   27 1
    50   23   24 2
    51   24   25 1
    52   24   42 1
    53   25   26 1
    54   25   32 1
    55   26   27 2
    56   27   28 1
    57   28   29 1
    58   28   30 1
    59   28   31 1
    60   32   37 ar
    61   32   33 ar
    62   33   34 ar
    63   33   65 1
    64   34   35 ar
    65   34   66 1
    66   35   40 1
    67   35   36 ar
    68   36   37 ar
    69   36   38 1
    70   37   67 1
    71   38   39 2
    72   38   41 1
    73   39   40 1
    74   41   68 1
    75   41   69 1
    76   42   43 2
    77   70   71 1
@<TRIPOS>MOLECULE
ZINC00037095
   27    28     0     0     0
SMALL
USER_CHARGES
methyl 2-(4-chlorobenzoyl)pyrazole-3-carboxylate
@<TRIPOS>ATOM
      1 C1         -0.0255    1.4477    0.0077 C.3       1 <0>         0.0390
      2 O1         -0.0031   -0.0041    0.0005 O.3       1 <0>        -0.3572
      3 C2          0.5961   -0.6018   -1.0489 C.2       1 <0>         0.5307
      4 O2          1.0864    0.0722   -1.9336 O.2       1 <0>        -0.4725
      5 C3          0.6566   -2.0687   -1.1231 C.2       1 <0>         0.0494
      6 C4          1.1411   -2.8176   -2.1740 C.2       1 <0>        -0.1506
      7 C5          1.0146   -4.1645   -1.8290 C.2       1 <0>         0.0579
      8 N1          0.4761   -4.2478   -0.6400 N.2       1 <0>        -0.2248
      9 N2          0.2354   -2.9540   -0.1609 N.am      1 <0>        -0.3836
     10 C6         -0.3104   -2.6351    1.0294 C.2       1 <0>         0.6235
     11 O3         -1.5182   -2.5953    1.1526 O.2       1 <0>        -0.4120
     12 C7          0.5593   -2.3342    2.1831 C.ar      1 <0>        -0.1488
     13 C8          1.9462   -2.2826    2.0216 C.ar      1 <0>        -0.0492
     14 C9          2.7528   -1.9958    3.1023 C.ar      1 <0>        -0.1191
     15 C10         2.1917   -1.7704    4.3487 C.ar      1 <0>         0.0034
     16 C11         0.8176   -1.8252    4.5166 C.ar      1 <0>        -0.1193
     17 C12        -0.0003   -2.1054    3.4427 C.ar      1 <0>        -0.0331
     18 Cl1         3.2148   -1.4170    5.7059 Cl        1 <0>        -0.0503
     19 H1          0.9964    1.8269   -0.0011 H         1 <0>         0.0705
     20 H2         -0.5540    1.8073   -0.8752 H         1 <0>         0.0706
     21 H3         -0.5356    1.7988    0.9047 H         1 <0>         0.1086
     22 H4          1.5478   -2.4318   -3.0972 H         1 <0>         0.1770
     23 H5          1.3093   -5.0011   -2.4451 H         1 <0>         0.2099
     24 H6          2.3851   -2.4626    1.0514 H         1 <0>         0.1352
     25 H7          3.8247   -1.9513    2.9778 H         1 <0>         0.1458
     26 H8          0.3863   -1.6478    5.4907 H         1 <0>         0.1486
     27 H9         -1.0714   -2.1475    3.5748 H         1 <0>         0.1503
@<TRIPOS>BOND
     1    1    2 1
     2    1   19 1
     3    1   20 1
     4    1   21 1
     5    2    3 1
     6    3    4 2
     7    3    5 1
     8    5    9 1
     9    5    6 2
    10    6    7 1
    11    6   22 1
    12    7    8 2
    13    7   23 1
    14    8    9 1
    15    9   10 am
    16   10   11 2
    17   10   12 1
    18   12   17 ar
    19   12   13 ar
    20   13   14 ar
    21   13   24 1
    22   14   15 ar
    23   14   25 1
    24   15   16 ar
    25   15   18 1
    26   16   17 ar
    27   16   26 1
    28   17   27 1
@<TRIPOS>MOLECULE
ZINC00045767
   39    41     0     0     0
SMALL
USER_CHARGES

@<TRIPOS>ATOM
      1 C1         -0.1653    1.5515   -0.1179 C.3       1 <0>        -0.1208
      2 C2         -0.1598    0.0446   -0.1054 C.ar      1 <0>        -0.0591
      3 C3         -1.3026   -0.6454    0.2600 C.ar      1 <0>        -0.1260
      4 C4         -1.3046   -2.0244    0.2737 C.ar      1 <0>        -0.0699
      5 C5         -0.1496   -2.7248   -0.0825 C.ar      1 <0>        -0.1552
      6 C6          1.0000   -2.0221   -0.4501 C.ar      1 <0>        -0.0368
      7 C7          0.9861   -0.6428   -0.4648 C.ar      1 <0>        -0.1226
      8 C8          2.2509   -2.7690   -0.8354 C.3       1 <0>        -0.1242
      9 C9         -0.1440   -4.2023   -0.0697 C.2       1 <0>         0.4892
     10 O1         -0.0882   -4.8008    0.9868 O.2       1 <0>        -0.4098
     11 C10        -0.2062   -4.9521   -1.3409 C.2       1 <0>         0.0460
     12 C11        -0.3130   -6.3557   -1.4728 C.2       1 <0>        -0.2021
     13 C12        -0.3411   -6.6474   -2.7878 C.2       1 <0>         0.0803
     14 N1         -0.2557   -5.4750   -3.4791 N.am      1 <0>        -0.3613
     15 N2         -0.1775   -4.4292   -2.5503 N.2       1 <0>        -0.2199
     16 C13        -0.2520   -5.3449   -4.8205 C.2       1 <0>         0.6032
     17 O2         -0.2398   -6.3332   -5.5265 O.2       1 <0>        -0.4667
     18 C14        -0.2630   -4.0023   -5.4313 C.ar      1 <0>        -0.1719
     19 C15        -0.1328   -2.8654   -4.6288 C.ar      1 <0>        -0.0435
     20 C16        -0.1438   -1.6137   -5.2050 C.ar      1 <0>        -0.1687
     21 C17        -0.2836   -1.4808   -6.5784 C.ar      1 <0>         0.1429
     22 C18        -0.4135   -2.6053   -7.3797 C.ar      1 <0>        -0.1710
     23 C19        -0.3977   -3.8623   -6.8154 C.ar      1 <0>        -0.0185
     24 F1         -0.2936   -0.2511   -7.1378 F         1 <0>        -0.1296
     25 H1         -0.4792    1.9055   -1.0999 H         1 <0>         0.0754
     26 H2         -0.8582    1.9186    0.6392 H         1 <0>         0.0701
     27 H3          0.8374    1.9203    0.0978 H         1 <0>         0.0698
     28 H4         -2.1947   -0.1026    0.5354 H         1 <0>         0.1299
     29 H5         -2.1970   -2.5616    0.5594 H         1 <0>         0.1281
     30 H6          1.8728   -0.0981   -0.7535 H         1 <0>         0.1300
     31 H7          2.2865   -2.8836   -1.9188 H         1 <0>         0.0792
     32 H8          3.1251   -2.2108   -0.5002 H         1 <0>         0.0777
     33 H9          2.2459   -3.7526   -0.3659 H         1 <0>         0.0615
     34 H10        -0.3626   -7.0681   -0.6627 H         1 <0>         0.1738
     35 H11        -0.4175   -7.6350   -3.2183 H         1 <0>         0.1977
     36 H12        -0.0243   -2.9677   -3.5591 H         1 <0>         0.1819
     37 H13        -0.0437   -0.7345   -4.5859 H         1 <0>         0.1453
     38 H14        -0.5228   -2.4957   -8.4486 H         1 <0>         0.1476
     39 H15        -0.4938   -4.7375   -7.4409 H         1 <0>         0.1481
@<TRIPOS>BOND
     1    1    2 1
     2    1   25 1
     3    1   26 1
     4    1   27 1
     5    2    7 ar
     6    2    3 ar
     7    3    4 ar
     8    3   28 1
     9    4    5 ar
    10    4   29 1
    11    5    6 ar
    12    5    9 1
    13    6    7 ar
    14    6    8 1
    15    7   30 1
    16    8   31 1
    17    8   32 1
    18    8   33 1
    19    9   10 2
    20    9   11 1
    21   11   15 2
    22   11   12 1
    23   12   13 2
    24   12   34 1
    25   13   14 1
    26   13   35 1
    27   14   15 1
    28   14   16 am
    29   16   17 2
    30   16   18 1
    31   18   23 ar
    32   18   19 ar
    33   19   20 ar
    34   19   36 1
    35   20   21 ar
    36   20   37 1
    37   21   22 ar
    38   21   24 1
    39   22   23 ar
    40   22   38 1
    41   23   39 1
@<TRIPOS>MOLECULE
ZINC00115253
   35    37     0     0     0
SMALL
USER_CHARGES
1-benzoyl-N-phenyl-pyrazole-3-carboxamide
@<TRIPOS>ATOM
      1 C1         -5.4448    3.3042    0.4714 C.ar      1 <0>        -0.0769
      2 C2         -4.9767    4.6062    0.4962 C.ar      1 <0>        -0.1355
      3 C3         -3.6253    4.8588    0.3857 C.ar      1 <0>        -0.0491
      4 C4         -2.7285    3.7966    0.2486 C.ar      1 <0>        -0.1584
      5 C5         -3.2087    2.4852    0.2185 C.ar      1 <0>        -0.0751
      6 C6         -4.5622    2.2471    0.3354 C.ar      1 <0>        -0.1369
      7 C7         -1.2806    4.0592    0.1298 C.2       1 <0>         0.5999
      8 O1         -0.8755    5.2009    0.0435 O.2       1 <0>        -0.4673
      9 N1         -0.4082    3.0319    0.1173 N.am      1 <0>        -0.3576
     10 C8          0.9513    3.1350    0.1133 C.2       1 <0>         0.0820
     11 C9          1.4607    1.8875    0.1000 C.2       1 <0>        -0.1938
     12 C10         0.3800    0.9767    0.0956 C.2       1 <0>         0.0725
     13 N2         -0.7393    1.6708    0.1003 N.2       1 <0>        -0.2441
     14 C11         0.4873   -0.4972    0.0818 C.2       1 <0>         0.5994
     15 O2          1.5814   -1.0270    0.0730 O.2       1 <0>        -0.4920
     16 N3         -0.6280   -1.2540    0.0790 N.am      1 <0>        -0.6565
     17 C12        -0.5287   -2.6451   -0.0247 C.ar      1 <0>         0.1367
     18 C13        -1.4930   -3.3616   -0.7217 C.ar      1 <0>        -0.1394
     19 C14        -1.3890   -4.7347   -0.8270 C.ar      1 <0>        -0.1015
     20 C15        -0.3327   -5.3975   -0.2293 C.ar      1 <0>        -0.1296
     21 C16         0.6260   -4.6876    0.4703 C.ar      1 <0>        -0.1014
     22 C17         0.5312   -3.3137    0.5741 C.ar      1 <0>        -0.1188
     23 H1         -6.5041    3.1121    0.5583 H         1 <0>         0.1308
     24 H2         -5.6713    5.4264    0.6020 H         1 <0>         0.1343
     25 H3         -3.2614    5.8755    0.4049 H         1 <0>         0.1371
     26 H4         -2.5213    1.6595    0.1083 H         1 <0>         0.1685
     27 H5         -4.9345    1.2334    0.3164 H         1 <0>         0.1325
     28 H6          1.5192    4.0537    0.1190 H         1 <0>         0.1990
     29 H7          2.5093    1.6294    0.0935 H         1 <0>         0.1761
     30 H8         -1.4994   -0.8338    0.1488 H         1 <0>         0.4172
     31 H9         -2.3208   -2.8451   -1.1846 H         1 <0>         0.1271
     32 H10        -2.1361   -5.2920   -1.3726 H         1 <0>         0.1282
     33 H11        -0.2560   -6.4718   -0.3093 H         1 <0>         0.1251
     34 H12         1.4500   -5.2082    0.9356 H         1 <0>         0.1279
     35 H13         1.2803   -2.7599    1.1206 H         1 <0>         0.1396
@<TRIPOS>BOND
     1    1    6 ar
     2    1    2 ar
     3    1   23 1
     4    2    3 ar
     5    2   24 1
     6    3    4 ar
     7    3   25 1
     8    4    5 ar
     9    4    7 1
    10    5    6 ar
    11    5   26 1
    12    6   27 1
    13    7    8 2
    14    7    9 am
    15    9   13 1
    16    9   10 1
    17   10   11 2
    18   10   28 1
    19   11   12 1
    20   11   29 1
    21   12   13 2
    22   12   14 1
    23   14   15 2
    24   14   16 am
    25   16   17 1
    26   16   30 1
    27   17   22 ar
    28   17   18 ar
    29   18   19 ar
    30   18   31 1
    31   19   20 ar
    32   19   32 1
    33   20   21 ar
    34   20   33 1
    35   21   22 ar
    36   21   34 1
    37   22   35 1
@<TRIPOS>MOLECULE
ZINC00037157
   26    27     0     0     0
SMALL
USER_CHARGES
(2-fluorophenyl)-(5-methyl-3-nitro-pyrazol-1-yl)-methanone
@<TRIPOS>ATOM
      1 C1          0.9631    6.5963   -0.1993 C.3       1 <0>        -0.1087
      2 C2         -0.1461    5.5764   -0.1726 C.2       1 <0>         0.1381
      3 C3         -1.4702    5.8353   -0.2414 C.2       1 <0>        -0.2073
      4 C4         -2.1538    4.6131   -0.1792 C.2       1 <0>         0.1670
      5 N1         -1.2735    3.6522   -0.0816 N.2       1 <0>        -0.2034
      6 N2          0.0045    4.2261   -0.0780 N.am      1 <0>        -0.3380
      7 C5          1.1737    3.5613    0.0095 C.2       1 <0>         0.6013
      8 O1          2.2173    4.1769    0.0973 O.2       1 <0>        -0.4397
      9 C6          1.1860    2.0865   -0.0014 C.ar      1 <0>        -0.2020
     10 C7         -0.0160    1.3737    0.0212 C.ar      1 <0>        -0.0460
     11 C8          0.0030   -0.0044    0.0104 C.ar      1 <0>        -0.1425
     12 C9          1.2086   -0.6849   -0.0233 C.ar      1 <0>        -0.0423
     13 C10         2.4029    0.0105   -0.0458 C.ar      1 <0>        -0.1705
     14 C11         2.4012    1.3935   -0.0344 C.ar      1 <0>         0.1727
     15 F1          3.5687    2.0730   -0.0556 F         1 <0>        -0.1139
     16 N3         -3.6234    4.4403   -0.2171 N.pl3     1 <0>         0.0464
     17 O2         -4.1071    3.3241   -0.1555 O.2       1 <0>        -0.1106
     18 O3         -4.3490    5.4142   -0.3099 O.3       1 <0>        -0.1095
     19 H1          1.2680    6.7745   -1.2305 H         1 <0>         0.0992
     20 H2          0.6101    7.5286    0.2415 H         1 <0>         0.1009
     21 H3          1.8133    6.2234    0.3718 H         1 <0>         0.1025
     22 H4         -1.9226    6.8124   -0.3255 H         1 <0>         0.1907
     23 H5         -0.9578    1.9017    0.0425 H         1 <0>         0.1768
     24 H6         -0.9257   -0.5555    0.0278 H         1 <0>         0.1444
     25 H7          1.2157   -1.7648   -0.0323 H         1 <0>         0.1449
     26 H8          3.3392   -0.5271   -0.0720 H         1 <0>         0.1497
@<TRIPOS>BOND
     1    1    2 1
     2    1   19 1
     3    1   20 1
     4    1   21 1
     5    2    6 1
     6    2    3 2
     7    3    4 1
     8    3   22 1
     9    4    5 2
    10    4   16 1
    11    5    6 1
    12    6    7 am
    13    7    8 2
    14    7    9 1
    15    9   14 ar
    16    9   10 ar
    17   10   11 ar
    18   10   23 1
    19   11   12 ar
    20   11   24 1
    21   12   13 ar
    22   12   25 1
    23   13   14 ar
    24   13   26 1
    25   14   15 1
    26   16   17 2
    27   16   18 1
@<TRIPOS>MOLECULE
ZINC00477315
   36    37     0     0     0
SMALL
USER_CHARGES

@<TRIPOS>ATOM
      1 C1          0.1203    1.4996   -0.0002 C.3       1 <0>        -0.0840
      2 C2          0.0973   -0.0072   -0.0051 C.2       1 <0>         0.1165
      3 C3          0.0822   -0.8232   -1.1448 C.2       1 <0>        -0.2405
      4 C4          0.0635   -2.1106   -0.7357 C.2       1 <0>         0.0810
      5 N1          0.0667   -2.1094    0.6263 N.am      1 <0>        -0.3709
      6 N2          0.0937   -0.7750    1.0524 N.2       1 <0>        -0.2893
      7 C5          0.0519   -3.1972    1.4217 C.2       1 <0>         0.6030
      8 O1         -0.0569   -4.3049    0.9343 O.2       1 <0>        -0.4738
      9 C6          0.1677   -3.0433    2.8831 C.ar      1 <0>        -0.0842
     10 C7          0.1475   -1.7685    3.4569 C.ar      1 <0>        -0.1869
     11 C8          0.2558   -1.6274    4.8272 C.ar      1 <0>         0.1315
     12 C9          0.3849   -2.7533    5.6366 C.ar      1 <0>         0.0697
     13 C10         0.4053   -4.0244    5.0679 C.ar      1 <0>         0.1326
     14 C11         0.2921   -4.1721    3.6986 C.ar      1 <0>        -0.1664
     15 O2          0.5316   -5.1217    5.8614 O.3       1 <0>        -0.2987
     16 C12         0.5452   -6.3943    5.2114 C.3       1 <0>         0.0214
     17 O3          0.4917   -2.6114    6.9837 O.3       1 <0>        -0.3127
     18 C13        -0.7242   -2.6117    7.7344 C.3       1 <0>         0.0361
     19 O4          0.2367   -0.3876    5.3861 O.3       1 <0>        -0.2992
     20 C14         0.1021    0.7229    4.4968 C.3       1 <0>         0.0235
     21 H1          1.1533    1.8473   -0.0065 H         1 <0>         0.0888
     22 H2         -0.3943    1.8737   -0.8853 H         1 <0>         0.0878
     23 H3         -0.3816    1.8677    0.8946 H         1 <0>         0.0798
     24 H4          0.0848   -0.4826   -2.1697 H         1 <0>         0.1649
     25 H5          0.0483   -2.9824   -1.3729 H         1 <0>         0.1897
     26 H6          0.0477   -0.8950    2.8297 H         1 <0>         0.1905
     27 H7          0.3035   -5.1583    3.2585 H         1 <0>         0.1491
     28 H8         -0.3879   -6.5334    4.6655 H         1 <0>         0.0593
     29 H9          1.3832   -6.4379    4.5157 H         1 <0>         0.0600
     30 H10         0.6508   -7.1821    5.9572 H         1 <0>         0.1069
     31 H11        -0.4973   -2.4912    8.7937 H         1 <0>         0.0966
     32 H12        -1.3564   -1.7882    7.4024 H         1 <0>         0.0471
     33 H13        -1.2465   -3.5558    7.5798 H         1 <0>         0.0469
     34 H14        -0.8343    0.6356    3.9457 H         1 <0>         0.0584
     35 H15         0.1010    1.6497    5.0705 H         1 <0>         0.1049
     36 H16         0.9369    0.7304    3.7959 H         1 <0>         0.0609
@<TRIPOS>BOND
     1    1    2 1
     2    1   21 1
     3    1   22 1
     4    1   23 1
     5    2    6 2
     6    2    3 1
     7    3    4 2
     8    3   24 1
     9    4    5 1
    10    4   25 1
    11    5    6 1
    12    5    7 am
    13    7    8 2
    14    7    9 1
    15    9   14 ar
    16    9   10 ar
    17   10   11 ar
    18   10   26 1
    19   11   12 ar
    20   11   19 1
    21   12   13 ar
    22   12   17 1
    23   13   14 ar
    24   13   15 1
    25   14   27 1
    26   15   16 1
    27   16   28 1
    28   16   29 1
    29   16   30 1
    30   17   18 1
    31   18   31 1
    32   18   32 1
    33   18   33 1
    34   19   20 1
    35   20   34 1
    36   20   35 1
    37   20   36 1
@<TRIPOS>MOLECULE
ZINC13808126
   44    45     0     0     0
SMALL
USER_CHARGES

@<TRIPOS>ATOM
      1 C1         -0.0178    1.4608    0.0101 C.3       1 <0>         0.0867
      2 N1          0.0021   -0.0041    0.0020 N.pl3     1 <0>        -0.6226
      3 C2          1.2806   -0.7192   -0.0140 C.3       1 <0>         0.0836
      4 C3         -1.1942   -0.7166    0.0096 C.ar      1 <0>         0.2579
      5 C4         -1.1732   -2.1084    0.0077 C.ar      1 <0>        -0.2100
      6 C5         -2.3535   -2.8163    0.0152 C.ar      1 <0>         0.0106
      7 C6         -3.5756   -2.1351    0.0247 C.ar      1 <0>        -0.0313
      8 C7         -3.5925   -0.7360    0.0266 C.ar      1 <0>        -0.0270
      9 C8         -2.4079   -0.0353    0.0249 C.ar      1 <0>        -0.2083
     10 N2         -4.7478   -2.8333    0.0317 N.2       1 <0>        -0.1701
     11 N3         -5.8736   -2.2036    0.0405 N.2       1 <0>        -0.2636
     12 C9         -7.0481   -2.9032    0.0475 C.ar      1 <0>         0.1218
     13 C10        -7.0330   -4.3006    0.0510 C.ar      1 <0>        -0.1370
     14 C11        -8.2218   -4.9996    0.0580 C.ar      1 <0>        -0.0158
     15 C12        -9.4277   -4.3206    0.0616 C.ar      1 <0>        -0.6298
     16 C13        -9.4505   -2.9369    0.0578 C.ar      1 <0>        -0.0169
     17 C14        -8.2696   -2.2244    0.0571 C.ar      1 <0>        -0.0947
     18 S1        -10.9415   -5.2223    0.0706 S.o2      1 <0>         2.6484
     19 O1        -11.9301   -4.3616   -0.4780 O.2       1 <0>        -0.9793
     20 O2        -10.6555   -6.5014   -0.4783 O.2       1 <0>        -0.9796
     21 N4        -11.3551   -5.4689    1.6550 N.2       1 <0>        -1.0481
     22 C15       -12.4437   -6.1174    1.9498 C.2       1 <0>         0.6960
     23 N5        -13.2499   -6.5975    0.9469 N.pl3     1 <0>        -0.8427
     24 O3        -12.7812   -6.3186    3.2423 O.3       1 <0>        -0.3071
     25 C16       -11.8966   -5.7919    4.2333 C.3       1 <0>         0.0502
     26 H1          1.0048    1.8381    0.0023 H         1 <0>         0.0788
     27 H2         -0.5450    1.8219   -0.8730 H         1 <0>         0.0608
     28 H3         -0.5280    1.8123    0.9069 H         1 <0>         0.0609
     29 H4          1.6074   -0.9021    1.0096 H         1 <0>         0.0562
     30 H5          1.1583   -1.6705   -0.5318 H         1 <0>         0.0743
     31 H6          2.0272   -0.1171   -0.5318 H         1 <0>         0.0729
     32 H7         -0.2294   -2.6335   -0.0001 H         1 <0>         0.1362
     33 H8         -2.3363   -3.8962    0.0133 H         1 <0>         0.1383
     34 H9         -4.5339   -0.2066    0.0337 H         1 <0>         0.1398
     35 H10        -2.4201    1.0446    0.0308 H         1 <0>         0.1300
     36 H11        -6.0927   -4.8318    0.0477 H         1 <0>         0.1451
     37 H12        -8.2117   -6.0796    0.0603 H         1 <0>         0.1433
     38 H13       -10.3953   -2.4137    0.0604 H         1 <0>         0.1481
     39 H14        -8.2889   -1.1446    0.0590 H         1 <0>         0.1444
     40 H15       -13.0076   -6.4530    0.0188 H         1 <0>         0.4200
     41 H16       -11.8210   -4.7109    4.1152 H         1 <0>         0.0740
     42 H17       -12.2839   -6.0227    5.2257 H         1 <0>         0.1085
     43 H18       -10.9101   -6.2401    4.1150 H         1 <0>         0.0738
     44 H19       -14.0616   -7.0810    1.1666 H         1 <0>         0.4238
@<TRIPOS>BOND
     1    1    2 1
     2    1   26 1
     3    1   27 1
     4    1   28 1
     5    2    3 1
     6    2    4 1
     7    3   29 1
     8    3   30 1
     9    3   31 1
    10    4    9 ar
    11    4    5 ar
    12    5    6 ar
    13    5   32 1
    14    6    7 ar
    15    6   33 1
    16    7    8 ar
    17    7   10 1
    18    8    9 ar
    19    8   34 1
    20    9   35 1
    21   10   11 2
    22   11   12 1
    23   12   17 ar
    24   12   13 ar
    25   13   14 ar
    26   13   36 1
    27   14   15 ar
    28   14   37 1
    29   15   16 ar
    30   15   18 1
    31   16   17 ar
    32   16   38 1
    33   17   39 1
    34   18   19 2
    35   18   20 2
    36   18   21 1
    37   21   22 2
    38   22   23 1
    39   22   24 1
    40   23   40 1
    41   23   44 1
    42   24   25 1
    43   25   41 1
    44   25   42 1
    45   25   43 1
@<TRIPOS>MOLECULE
ZINC28822898
   63    67     0     0     0
SMALL
USER_CHARGES
5-chloro-N-[(1R,2S)-2-[[4-[1-(pyrrolidin-1-ylmethyl)cyclopropyl]benzoyl]amino]cyclopentyl]thiophene-2-carboxamide
@<TRIPOS>ATOM
      1 C1         -0.7571    3.6211   -1.0016 C.ar      1 <0>        -0.0797
      2 C2          0.6046    3.4291   -1.1113 C.ar      1 <0>        -0.1165
      3 C3          1.3944    4.3868   -1.7225 C.ar      1 <0>        -0.0608
      4 C4          0.8257    5.5445   -2.2231 C.ar      1 <0>        -0.1242
      5 C5         -0.5341    5.7511   -2.1156 C.ar      1 <0>        -0.0514
      6 C6         -1.3364    4.7892   -1.4998 C.ar      1 <0>        -0.1125
      7 C7         -2.7943    5.0042   -1.3807 C.2       1 <0>         0.5545
      8 O1         -3.2966    6.0203   -1.8195 O.2       1 <0>        -0.5234
      9 N1         -3.5663    4.0734   -0.7856 N.am      1 <0>        -0.7266
     10 C8         -5.0109    4.2864   -0.6675 C.3       1 <0>         0.1283
     11 H1         -5.2419    5.0944   -1.3773 H         1 <0>         0.1126
     12 C9         -5.7657    2.9801   -0.9894 C.3       1 <0>        -0.1296
     13 C10        -6.9583    2.9771   -0.0012 C.3       1 <0>        -0.1235
     14 C11        -6.3342    3.5634    1.2895 C.3       1 <0>        -0.1297
     15 C12        -5.3724    4.6573    0.7814 C.3       1 <0>         0.1304
     16 H2         -5.8005    5.6674    0.8614 H         1 <0>         0.1159
     17 N2         -4.1635    4.6862    1.6085 N.am      1 <0>        -0.7220
     18 C13        -3.9078    5.7533    2.3911 C.2       1 <0>         0.6069
     19 O2         -4.6812    6.6930    2.4106 O.2       1 <0>        -0.5155
     20 C14        -2.6992    5.7822    3.2180 C.2       1 <0>        -0.2239
     21 C15        -2.2552    6.7714    4.0821 C.2       1 <0>        -0.0629
     22 C16        -1.0746    6.5414    4.7420 C.2       1 <0>        -0.1544
     23 C17        -0.4075    5.3759    4.5219 C.2       1 <0>        -0.1291
     24 S1         -1.4191    4.5504    3.3814 S.3       1 <0>         0.1708
     25 Cl1         1.0892    4.8415    5.2205 Cl        1 <0>         0.0290
     26 C18         2.8804    4.1677   -1.8438 C.3       1 <0>        -0.2181
     27 C19         3.7404    4.4596   -0.6126 C.3       1 <0>        -0.0894
     28 C20         3.7813    5.4040   -1.8165 C.3       1 <0>        -0.1171
     29 C21         3.3047    3.0041   -2.7421 C.3       1 <0>         0.0385
     30 N3          2.6917    3.1603   -4.0680 N.4       1 <0>        -0.4087
     31 C22         3.0668    4.4617   -4.6778 C.3       1 <0>        -0.0040
     32 C23         2.8052    4.2341   -6.1879 C.3       1 <0>        -0.1441
     33 C24         3.2487    2.7681   -6.3984 C.3       1 <0>        -0.1421
     34 C25         3.1780    2.1221   -5.0024 C.3       1 <0>        -0.0012
     35 H3         -1.3730    2.8709   -0.5281 H         1 <0>         0.1322
     36 H4          1.0546    2.5273   -0.7233 H         1 <0>         0.1333
     37 H5          1.4477    6.2880   -2.6993 H         1 <0>         0.1318
     38 H6         -0.9767    6.6552   -2.5068 H         1 <0>         0.1430
     39 H7         -3.1117    3.1538   -0.3886 H         1 <0>         0.4102
     40 H8         -6.0983    2.9977   -2.0378 H         1 <0>         0.0771
     41 H9         -5.0965    2.1215   -0.8314 H         1 <0>         0.0730
     42 H10        -7.7691    3.6025   -0.4031 H         1 <0>         0.0773
     43 H11        -7.3213    1.9473    0.1323 H         1 <0>         0.0779
     44 H12        -7.1300    3.9768    1.9265 H         1 <0>         0.0792
     45 H13        -5.8042    2.7683    1.8344 H         1 <0>         0.0761
     46 H14        -3.4645    3.8370    1.5908 H         1 <0>         0.4062
     47 H15        -2.8147    7.6834    4.2297 H         1 <0>         0.1581
     48 H16        -0.6796    7.2761    5.4280 H         1 <0>         0.1526
     49 H17         3.0914    4.5838    0.2669 H         1 <0>         0.1168
     50 H18         4.4328    3.6220   -0.4420 H         1 <0>         0.1138
     51 H19         4.5074    5.3468   -2.6408 H         1 <0>         0.1055
     52 H20         3.1662    6.3086   -1.9319 H         1 <0>         0.1141
     53 H21         4.4001    2.9992   -2.8428 H         1 <0>         0.1291
     54 H22         2.9734    2.0555   -2.2944 H         1 <0>         0.1314
     55 H23         2.4366    5.2590   -4.2569 H         1 <0>         0.1287
     56 H24         4.1236    4.6770   -4.4615 H         1 <0>         0.1286
     57 H25         1.7374    4.3884   -6.4024 H         1 <0>         0.0971
     58 H26         3.4038    4.9461   -6.7751 H         1 <0>         0.1155
     59 H27         2.5658    2.2766   -7.1069 H         1 <0>         0.1058
     60 H28         4.2718    2.7489   -6.8020 H         1 <0>         0.1048
     61 H29         4.1729    1.7783   -4.6830 H         1 <0>         0.1287
     62 H30         2.4791    1.2726   -5.0027 H         1 <0>         0.1300
     63 H31         1.6064    3.0815   -3.9073 H         1 <0>         0.4458
@<TRIPOS>BOND
     1    1    6 ar
     2    1    2 ar
     3    1   35 1
     4    2    3 ar
     5    2   36 1
     6    3    4 ar
     7    3   26 1
     8    4    5 ar
     9    4   37 1
    10    5    6 ar
    11    5   38 1
    12    6    7 1
    13    7    8 2
    14    7    9 am
    15    9   10 1
    16    9   39 1
    17   10   11 1
    18   10   15 1
    19   10   12 1
    20   12   13 1
    21   12   40 1
    22   12   41 1
    23   13   14 1
    24   13   42 1
    25   13   43 1
    26   14   15 1
    27   14   44 1
    28   14   45 1
    29   15   16 1
    30   15   17 1
    31   17   18 am
    32   17   46 1
    33   18   19 2
    34   18   20 1
    35   20   24 1
    36   20   21 2
    37   21   22 1
    38   21   47 1
    39   22   23 2
    40   22   48 1
    41   23   24 1
    42   23   25 1
    43   26   28 1
    44   26   27 1
    45   26   29 1
    46   27   28 1
    47   27   49 1
    48   27   50 1
    49   28   51 1
    50   28   52 1
    51   29   30 1
    52   29   53 1
    53   29   54 1
    54   30   34 1
    55   30   31 1
    56   30   63 1
    57   31   32 1
    58   31   55 1
    59   31   56 1
    60   32   33 1
    61   32   57 1
    62   32   58 1
    63   33   34 1
    64   33   59 1
    65   33   60 1
    66   34   61 1
    67   34   62 1
@<TRIPOS>MOLECULE
ZINC01910616
   60    63     0     0     0
SMALL
USER_CHARGES
3-[[2-[(4-amidinophenyl)aminomethyl]-1-methyl-benzoimidazol-5-yl]carbonyl-(2-pyridyl)amino]propanoic acid
@<TRIPOS>ATOM
      1 C1          0.5865   -1.8473    1.7596 C.3       1 <0>         0.0728
      2 N1         -0.0011   -1.5841    3.0754 N.pl3     1 <0>        -0.4807
      3 C2          0.6873   -1.4122    4.2568 C.ar      1 <0>         0.0845
      4 C3          2.0357   -1.4239    4.5969 C.ar      1 <0>        -0.1121
      5 C4          2.4180   -1.2162    5.8900 C.ar      1 <0>        -0.0691
      6 C5          1.4591   -0.9894    6.8866 C.ar      1 <0>        -0.1346
      7 C6          0.1055   -0.9743    6.5647 C.ar      1 <0>         0.0074
      8 C7         -0.2888   -1.1862    5.2445 C.ar      1 <0>         0.0276
      9 N2         -1.4970   -1.2314    4.6247 N.2       1 <0>        -0.4522
     10 C8         -1.3270   -1.4583    3.3553 C.2       1 <0>         0.2306
     11 C9         -2.4371   -1.5695    2.3423 C.3       1 <0>         0.2000
     12 N3         -2.8760   -2.9642    2.2500 N.pl3     1 <0>        -0.7081
     13 C10        -3.8991   -3.3156    1.3732 C.ar      1 <0>         0.2903
     14 C11        -4.5076   -2.3402    0.5894 C.ar      1 <0>        -0.2017
     15 C12        -5.5157   -2.6860   -0.2827 C.ar      1 <0>         0.0008
     16 C13        -5.9350   -4.0149   -0.3716 C.ar      1 <0>        -0.2332
     17 C14        -5.3265   -4.9907    0.4201 C.ar      1 <0>        -0.0066
     18 C15        -4.3149   -4.6405    1.2864 C.ar      1 <0>        -0.1916
     19 C16        -7.0210   -4.3881   -1.3031 C.cat     1 <0>         0.6028
     20 N4         -7.6208   -3.4237   -2.0842 N.pl3     1 <0>        -0.7922
     21 C17         1.8864   -0.7664    8.2821 C.2       1 <0>         0.5708
     22 O1          1.2765    0.0138    8.9873 O.2       1 <0>        -0.5153
     23 N5          2.9525   -1.4280    8.7743 N.am      1 <0>        -0.5330
     24 C18         3.8077   -2.2092    7.8774 C.3       1 <0>         0.0980
     25 C19         5.0983   -1.4353    7.6010 C.3       1 <0>        -0.1787
     26 C20         5.9781   -2.2389    6.6784 C.2       1 <0>         0.4674
     27 O2          5.6107   -3.3197    6.2826 O.co2     1 <0>        -0.6418
     28 C21         3.2412   -1.3688   10.1360 C.ar      1 <0>         0.3587
     29 C22         2.2767   -0.9077   11.0253 C.ar      1 <0>        -0.1939
     30 C23         2.5746   -0.8598   12.3755 C.ar      1 <0>        -0.0597
     31 C24         3.8359   -1.2656   12.7904 C.ar      1 <0>        -0.2031
     32 C25         4.7469   -1.7068   11.8515 C.ar      1 <0>         0.1276
     33 N6          4.4328   -1.7471   10.5707 N.ar      1 <0>        -0.4989
     34 H1          0.6785   -2.9233    1.6114 H         1 <0>         0.0794
     35 H2          1.5730   -1.3872    1.7035 H         1 <0>         0.0947
     36 H3         -0.0549   -1.4275    0.9847 H         1 <0>         0.0858
     37 H4          2.7819   -1.5982    3.8358 H         1 <0>         0.1371
     38 H5          3.4668   -1.2268    6.1473 H         1 <0>         0.1711
     39 H6         -0.6342   -0.7993    7.3319 H         1 <0>         0.1440
     40 H7         -3.2751   -0.9447    2.6514 H         1 <0>         0.1102
     41 H8         -2.0757   -1.2372    1.3692 H         1 <0>         0.0941
     42 H9         -2.4539   -3.6429    2.7996 H         1 <0>         0.4168
     43 H10        -4.1860   -1.3117    0.6618 H         1 <0>         0.1452
     44 H11        -5.9847   -1.9293   -0.8940 H         1 <0>         0.1350
     45 H12        -5.6487   -6.0194    0.3530 H         1 <0>         0.1335
     46 H13        -3.8437   -5.3951    1.8989 H         1 <0>         0.1452
     47 H14        -8.1155   -5.9726   -1.9664 H         1 <0>         0.4390
     48 H15        -7.3305   -2.5003   -2.0228 H         1 <0>         0.4401
     49 H16        -8.3332   -3.6685   -2.6952 H         1 <0>         0.4268
     50 H17         4.0496   -3.1634    8.3456 H         1 <0>         0.0897
     51 H18         3.2830   -2.3876    6.9389 H         1 <0>         0.1112
     52 H19         4.8566   -0.4811    7.1328 H         1 <0>         0.0627
     53 H20         5.6231   -1.2568    8.5395 H         1 <0>         0.0925
     54 H21         1.3068   -0.5952   10.6673 H         1 <0>         0.1662
     55 H22         1.8440   -0.5105   13.0902 H         1 <0>         0.1341
     56 H23         4.1018   -1.2361   13.8368 H         1 <0>         0.1331
     57 H24         5.7293   -2.0235   12.1695 H         1 <0>         0.1595
     58 N7         -7.3714   -5.6657   -1.3399 N.pl3     1 <0>        -0.7722
     59 H25        -6.8937   -6.3465   -0.7377 H         1 <0>         0.4572
     60 O3          7.1701   -1.7540    6.2963 O.co2     1 <0>        -0.7646
@<TRIPOS>BOND
     1    1    2 1
     2    1   34 1
     3    1   35 1
     4    1   36 1
     5    2   10 1
     6    2    3 1
     7    3    8 ar
     8    3    4 ar
     9    4    5 ar
    10    4   37 1
    11    5    6 ar
    12    5   38 1
    13    6    7 ar
    14    6   21 1
    15    7    8 ar
    16    7   39 1
    17    8    9 1
    18    9   10 2
    19   10   11 1
    20   11   12 1
    21   11   40 1
    22   11   41 1
    23   12   13 1
    24   12   42 1
    25   13   18 ar
    26   13   14 ar
    27   14   15 ar
    28   14   43 1
    29   15   16 ar
    30   15   44 1
    31   16   17 ar
    32   16   19 1
    33   17   18 ar
    34   17   45 1
    35   18   46 1
    36   19   20 1
    37   19   58 2
    38   20   48 1
    39   20   49 1
    40   21   22 2
    41   21   23 am
    42   23   24 1
    43   23   28 1
    44   24   25 1
    45   24   50 1
    46   24   51 1
    47   25   26 1
    48   25   52 1
    49   25   53 1
    50   26   27 2
    51   26   60 1
    52   28   33 ar
    53   28   29 ar
    54   29   30 ar
    55   29   54 1
    56   30   31 ar
    57   30   55 1
    58   31   32 ar
    59   31   56 1
    60   32   33 ar
    61   32   57 1
    62   47   58 1
    63   58   59 1
@<TRIPOS>MOLECULE
ZINC06527999
   22    22     0     0     0
SMALL
USER_CHARGES

@<TRIPOS>ATOM
      1 C1         -0.0167    1.3782    0.0096 C.ar      1 <0>        -0.0115
      2 C2          1.1707    2.0857    0.0021 C.ar      1 <0>        -0.1129
      3 C3          2.3778    1.4105   -0.0131 C.ar      1 <0>        -0.0400
      4 C4          2.3961    0.0274   -0.0207 C.ar      1 <0>        -0.1130
      5 C5          1.2082   -0.6793   -0.0132 C.ar      1 <0>        -0.0114
      6 C6          0.0021   -0.0041    0.0020 C.ar      1 <0>        -0.6247
      7 S1         -1.5119   -0.9055    0.0117 S.o2      1 <0>         2.6508
      8 O1         -1.2185   -2.1862    0.5528 O.2       1 <0>        -0.9839
      9 O2         -2.4926   -0.0462    0.5765 O.2       1 <0>        -0.9839
     10 N1         -1.9477   -1.1475   -1.5675 N.2       1 <0>        -1.0529
     11 C7         -3.0425   -1.7962   -1.8494 C.2       1 <0>         0.7508
     12 N2         -3.8355   -2.2795   -0.8356 N.pl3     1 <0>        -0.8789
     13 N3         -3.4044   -1.9971   -3.1604 N.pl3     1 <0>        -0.8159
     14 Br1         4.0026    2.3779   -0.0240 Br        1 <0>        -0.0336
     15 H1         -0.9592    1.9053    0.0260 H         1 <0>         0.1504
     16 H2          1.1559    3.1656    0.0077 H         1 <0>         0.1452
     17 H3          3.3384   -0.5003   -0.0329 H         1 <0>         0.1452
     18 H4          1.2224   -1.7592   -0.0191 H         1 <0>         0.1504
     19 H5         -3.5802   -2.1377    0.0894 H         1 <0>         0.4126
     20 H6         -4.6503   -2.7622   -1.0454 H         1 <0>         0.4146
     21 H7         -2.8449   -1.6561   -3.8757 H         1 <0>         0.4302
     22 H8         -4.2191   -2.4798   -3.3702 H         1 <0>         0.4126
@<TRIPOS>BOND
     1    1    6 ar
     2    1    2 ar
     3    1   15 1
     4    2    3 ar
     5    2   16 1
     6    3    4 ar
     7    3   14 1
     8    4    5 ar
     9    4   17 1
    10    5    6 ar
    11    5   18 1
    12    6    7 1
    13    7    8 2
    14    7    9 2
    15    7   10 1
    16   10   11 2
    17   11   12 1
    18   11   13 1
    19   12   19 1
    20   12   20 1
    21   13   21 1
    22   13   22 1
@<TRIPOS>MOLECULE
ZINC03276773
   25    25     0     0     0
SMALL
USER_CHARGES

@<TRIPOS>ATOM
      1 C1         -0.0184    1.5028    0.0103 C.3       1 <0>        -0.1248
      2 C2          0.0021   -0.0041    0.0020 C.ar      1 <0>        -0.0303
      3 C3          0.0057   -0.6887   -1.1989 C.ar      1 <0>        -0.1437
      4 C4          0.0245   -2.0709   -1.2065 C.ar      1 <0>        -0.0142
      5 C5          0.0400   -2.7685   -0.0132 C.ar      1 <0>        -0.6422
      6 C6          0.0373   -2.0839    1.1877 C.ar      1 <0>        -0.0143
      7 C7          0.0229   -0.7016    1.1953 C.ar      1 <0>        -0.1437
      8 S1          0.0628   -4.5303   -0.0229 S.o2      1 <0>         2.6505
      9 O1         -0.4759   -4.9503    1.2232 O.2       1 <0>        -0.9886
     10 O2         -0.4897   -4.9367   -1.2674 O.2       1 <0>        -0.9886
     11 N1          1.6509   -4.9994   -0.0343 N.2       1 <0>        -1.0528
     12 C8          1.9561   -6.2666   -0.0428 C.2       1 <0>         0.7489
     13 N2          0.9595   -7.2137   -0.0424 N.pl3     1 <0>        -0.8795
     14 N3          3.2745   -6.6561   -0.0523 N.pl3     1 <0>        -0.8171
     15 H1          1.0042    1.8801    0.0026 H         1 <0>         0.0797
     16 H2         -0.5455    1.8639   -0.8728 H         1 <0>         0.0730
     17 H3         -0.5286    1.8543    0.9071 H         1 <0>         0.0730
     18 H4         -0.0064   -0.1436   -2.1312 H         1 <0>         0.1335
     19 H5          0.0266   -2.6057   -2.1448 H         1 <0>         0.1400
     20 H6          0.0491   -2.6289    2.1200 H         1 <0>         0.1400
     21 H7          0.0245   -0.1667    2.1335 H         1 <0>         0.1335
     22 H8          0.0293   -6.9389   -0.0358 H         1 <0>         0.4125
     23 H9          1.1866   -8.1567   -0.0488 H         1 <0>         0.4137
     24 H10         3.9776   -5.9878   -0.0525 H         1 <0>         0.4297
     25 H11         3.5016   -7.5991   -0.0586 H         1 <0>         0.4119
@<TRIPOS>BOND
     1    1    2 1
     2    1   15 1
     3    1   16 1
     4    1   17 1
     5    2    7 ar
     6    2    3 ar
     7    3    4 ar
     8    3   18 1
     9    4    5 ar
    10    4   19 1
    11    5    6 ar
    12    5    8 1
    13    6    7 ar
    14    6   20 1
    15    7   21 1
    16    8    9 2
    17    8   10 2
    18    8   11 1
    19   11   12 2
    20   12   13 1
    21   12   14 1
    22   13   22 1
    23   13   23 1
    24   14   24 1
    25   14   25 1
@<TRIPOS>MOLECULE
ZINC13808146
   26    26     0     0     0
SMALL
USER_CHARGES

@<TRIPOS>ATOM
      1 C1         -0.0167    1.3779    0.0096 C.ar      1 <0>        -0.1302
      2 C2          1.1711    2.0854    0.0021 C.ar      1 <0>         0.0011
      3 C3          2.3773    1.4107   -0.0130 C.ar      1 <0>        -0.0665
      4 C4          2.3961    0.0283   -0.0201 C.ar      1 <0>         0.0471
      5 C5          1.2086   -0.6790   -0.0117 C.ar      1 <0>        -0.6857
      6 C6          0.0021   -0.0041    0.0020 C.ar      1 <0>         0.0232
      7 S1          1.2325   -2.4408   -0.0219 S.o2      1 <0>         2.7020
      8 O1         -0.0129   -2.8607   -0.5621 O.2       1 <0>        -0.9230
      9 O2          2.4774   -2.8268   -0.5880 O.2       1 <0>        -0.9235
     10 N1          1.2558   -2.9393    1.5571 N.pl3     1 <0>        -0.8958
     11 N2          0.2090   -2.5860    2.4187 N.pl3     1 <0>        -0.5547
     12 C7         -0.4782   -3.5615    3.1016 C.2       1 <0>         0.6388
     13 N3         -0.1559   -4.8150    2.9474 N.2       1 <0>        -0.8056
     14 N4         -1.5054   -3.2149    3.9471 N.pl3     1 <0>        -0.8409
     15 N5          3.6490    2.1682   -0.0221 N.pl3     1 <0>         0.0295
     16 O3          3.6326    3.3771   -0.0163 O.2       1 <0>        -0.1457
     17 O4          4.7040    1.5780   -0.0353 O.3       1 <0>        -0.1445
     18 H1         -0.9591    1.9051    0.0259 H         1 <0>         0.1631
     19 H2          1.1565    3.1653    0.0076 H         1 <0>         0.1659
     20 H3          3.3385   -0.4989   -0.0326 H         1 <0>         0.1725
     21 H4         -0.9258   -0.5567    0.0082 H         1 <0>         0.1635
     22 H5          1.9941   -3.4759    1.8855 H         1 <0>         0.4276
     23 H6         -0.0309   -1.6532    2.5335 H         1 <0>         0.4092
     24 H7         -1.7452   -2.2820    4.0618 H         1 <0>         0.4037
     25 H8         -1.9902   -3.9031    4.4289 H         1 <0>         0.4256
     26 H9          0.5689   -5.0596    2.3509 H         1 <0>         0.3432
@<TRIPOS>BOND
     1    1    6 ar
     2    1    2 ar
     3    1   18 1
     4    2    3 ar
     5    2   19 1
     6    3    4 ar
     7    3   15 1
     8    4    5 ar
     9    4   20 1
    10    5    6 ar
    11    5    7 1
    12    6   21 1
    13    7    8 2
    14    7    9 2
    15    7   10 1
    16   10   11 1
    17   10   22 1
    18   11   12 1
    19   11   23 1
    20   12   13 2
    21   12   14 1
    22   13   26 1
    23   14   24 1
    24   14   25 1
    25   15   16 2
    26   15   17 1
@<TRIPOS>MOLECULE
ZINC13808146
   27    27     0     0     0
SMALL
USER_CHARGES

@<TRIPOS>ATOM
      1 C1         -0.0167    1.3779    0.0096 C.ar      1 <0>        -0.1232
      2 C2          1.1711    2.0854    0.0021 C.ar      1 <0>         0.0110
      3 C3          2.3773    1.4107   -0.0130 C.ar      1 <0>        -0.0598
      4 C4          2.3961    0.0283   -0.0201 C.ar      1 <0>         0.0486
      5 C5          1.2086   -0.6790   -0.0117 C.ar      1 <0>        -0.6962
      6 C6          0.0021   -0.0041    0.0020 C.ar      1 <0>         0.0107
      7 S1          1.2325   -2.4408   -0.0219 S.o2      1 <0>         2.6871
      8 O1         -0.0129   -2.8607   -0.5621 O.2       1 <0>        -0.9012
      9 O2          2.4774   -2.8268   -0.5880 O.2       1 <0>        -0.8837
     10 N1          1.2558   -2.9393    1.5571 N.pl3     1 <0>        -0.9120
     11 N2          0.2090   -2.5860    2.4187 N.pl3     1 <0>        -0.4294
     12 C7          0.2272   -2.9771    3.6573 C.cat     1 <0>         0.7416
     13 N3          1.2838   -3.7450    4.1272 N.pl3     1 <0>        -0.8059
     14 N4         -0.8099   -2.6271    4.5109 N.pl3     1 <0>        -0.7994
     15 N5          3.6490    2.1682   -0.0221 N.pl3     1 <0>         0.0234
     16 O3          3.6326    3.3771   -0.0163 O.2       1 <0>        -0.1329
     17 O4          4.7040    1.5780   -0.0353 O.3       1 <0>        -0.1378
     18 H1         -0.9591    1.9051    0.0259 H         1 <0>         0.1680
     19 H2          1.1565    3.1653    0.0076 H         1 <0>         0.1718
     20 H3          3.3385   -0.4989   -0.0326 H         1 <0>         0.1756
     21 H4         -0.9258   -0.5567    0.0082 H         1 <0>         0.1630
     22 H5         -1.5482   -2.0905    4.1826 H         1 <0>         0.4419
     23 H6         -0.7963   -2.9191    5.4358 H         1 <0>         0.4479
     24 H7          2.0085   -3.9895    3.5307 H         1 <0>         0.4350
     25 H8          1.2974   -4.0370    5.0521 H         1 <0>         0.4464
     26 H9         -0.5293   -2.0495    2.0904 H         1 <0>         0.4639
     27 H10         1.9941   -3.4759    1.8855 H         1 <0>         0.4455
@<TRIPOS>BOND
     1    1    6 ar
     2    1    2 ar
     3    1   18 1
     4    2    3 ar
     5    2   19 1
     6    3    4 ar
     7    3   15 1
     8    4    5 ar
     9    4   20 1
    10    5    6 ar
    11    5    7 1
    12    6   21 1
    13    7    8 2
    14    7    9 2
    15    7   10 1
    16   10   11 1
    17   10   27 1
    18   11   12 2
    19   11   26 1
    20   12   13 1
    21   12   14 1
    22   13   24 1
    23   13   25 1
    24   14   22 1
    25   14   23 1
    26   15   16 2
    27   15   17 1
@<TRIPOS>MOLECULE
ZINC13808146
   26    26     0     0     0
SMALL
USER_CHARGES

@<TRIPOS>ATOM
      1 C1         -0.0167    1.3779    0.0096 C.ar      1 <0>        -0.1364
      2 C2          1.1711    2.0854    0.0021 C.ar      1 <0>        -0.0115
      3 C3          2.3773    1.4107   -0.0130 C.ar      1 <0>        -0.0714
      4 C4          2.3961    0.0283   -0.0201 C.ar      1 <0>         0.0432
      5 C5          1.2086   -0.6790   -0.0117 C.ar      1 <0>        -0.6196
      6 C6          0.0021   -0.0041    0.0020 C.ar      1 <0>         0.0265
      7 S1          1.2325   -2.4408   -0.0219 S.o2      1 <0>         2.6039
      8 O1         -0.0129   -2.8607   -0.5621 O.2       1 <0>        -1.0096
      9 O2          2.4774   -2.8268   -0.5880 O.2       1 <0>        -1.0079
     10 N1          1.2558   -2.9393    1.5571 N.2       1 <0>        -0.9418
     11 N2          1.2775   -4.3071    1.8596 N.pl3     1 <0>        -0.3977
     12 C7          1.2958   -4.6981    3.0982 C.cat     1 <0>         0.7079
     13 N3          1.2937   -3.7608    4.1220 N.pl3     1 <0>        -0.8136
     14 N4          1.3173   -6.0533    3.3979 N.pl3     1 <0>        -0.8501
     15 N5          3.6490    2.1682   -0.0221 N.pl3     1 <0>         0.0338
     16 O3          3.6326    3.3771   -0.0163 O.2       1 <0>        -0.1550
     17 O4          4.7040    1.5780   -0.0353 O.3       1 <0>        -0.1513
     18 H1         -0.9591    1.9051    0.0259 H         1 <0>         0.1573
     19 H2          1.1565    3.1653    0.0076 H         1 <0>         0.1606
     20 H3          3.3385   -0.4989   -0.0326 H         1 <0>         0.1679
     21 H4         -0.9258   -0.5567    0.0082 H         1 <0>         0.1589
     22 H5          1.3188   -6.7083    2.6825 H         1 <0>         0.4243
     23 H6          1.3310   -6.3453    4.3228 H         1 <0>         0.4274
     24 H7          1.2786   -2.8138    3.9126 H         1 <0>         0.4406
     25 H8          1.3073   -4.0528    5.0469 H         1 <0>         0.4163
     26 H9          1.2790   -4.9621    1.1442 H         1 <0>         0.3975
@<TRIPOS>BOND
     1    1    6 ar
     2    1    2 ar
     3    1   18 1
     4    2    3 ar
     5    2   19 1
     6    3    4 ar
     7    3   15 1
     8    4    5 ar
     9    4   20 1
    10    5    6 ar
    11    5    7 1
    12    6   21 1
    13    7    8 2
    14    7    9 2
    15    7   10 1
    16   10   11 1
    17   11   12 2
    18   11   26 1
    19   12   13 1
    20   12   14 1
    21   13   24 1
    22   13   25 1
    23   14   22 1
    24   14   23 1
    25   15   16 2
    26   15   17 1
@<TRIPOS>MOLECULE
ZINC13808171
   38    39     0     0     0
SMALL
USER_CHARGES

@<TRIPOS>ATOM
      1 C1         -1.4070    1.5521    0.2056 C.3       1 <0>         0.1136
      2 N1         -1.1754    0.1057    0.1870 N.pl3     1 <0>        -0.6883
      3 C2         -1.2031   -0.6568    1.4376 C.3       1 <0>         0.1144
      4 C3         -0.9288   -0.5448   -1.0201 C.ar      1 <0>         0.1989
      5 C4          0.3626   -0.6895   -1.4813 C.ar      1 <0>        -0.1321
      6 C5          0.6196   -1.3379   -2.6852 C.ar      1 <0>        -0.0718
      7 C6         -0.3933   -1.8461   -3.4403 C.ar      1 <0>        -0.1451
      8 C7         -1.7238   -1.7199   -3.0062 C.ar      1 <0>         0.0370
      9 C8         -1.9980   -1.0668   -1.7792 C.ar      1 <0>        -0.0832
     10 C9         -3.3272   -0.9460   -1.3446 C.ar      1 <0>        -0.0247
     11 C10        -4.3338   -1.4613   -2.1029 C.ar      1 <0>        -0.1551
     12 C11        -4.0647   -2.1092   -3.3070 C.ar      1 <0>         0.0173
     13 C12        -2.7893   -2.2343   -3.7653 C.ar      1 <0>        -0.6817
     14 S1         -2.4734   -3.0560   -5.2916 S.o2      1 <0>         2.6994
     15 O1         -3.7299   -3.5092   -5.7765 O.2       1 <0>        -0.9419
     16 O2         -1.6296   -2.1982   -6.0476 O.2       1 <0>        -0.9358
     17 N2         -1.5841   -4.4091   -4.9445 N.pl3     1 <0>        -0.8780
     18 N3         -2.0935   -5.3764   -4.0684 N.pl3     1 <0>        -0.5039
     19 C13        -2.1975   -6.6856   -4.4751 C.2       1 <0>         0.6359
     20 N4         -1.8221   -7.0268   -5.6758 N.2       1 <0>        -0.8101
     21 N5         -2.6974   -7.6349   -3.6154 N.pl3     1 <0>        -0.8913
     22 H1         -0.4564    2.0707    0.3301 H         1 <0>         0.0389
     23 H2         -1.8678    1.8585   -0.7335 H         1 <0>         0.0557
     24 H3         -2.0691    1.8034    1.0342 H         1 <0>         0.0615
     25 H4         -1.4089    0.0169    2.2694 H         1 <0>         0.0697
     26 H5         -1.9836   -1.4157    1.3832 H         1 <0>         0.0409
     27 H6         -0.2376   -1.1389    1.5908 H         1 <0>         0.0436
     28 H7          1.1839   -0.2947   -0.9016 H         1 <0>         0.1293
     29 H8          1.6391   -1.4395   -3.0267 H         1 <0>         0.1334
     30 H9         -0.1743   -2.3456   -4.3725 H         1 <0>         0.1320
     31 H10        -3.5503   -0.4470   -0.4131 H         1 <0>         0.1355
     32 H11        -5.3556   -1.3669   -1.7662 H         1 <0>         0.1361
     33 H12        -4.8811   -2.5099   -3.8895 H         1 <0>         0.1468
     34 H13        -0.7104   -4.5319   -5.3477 H         1 <0>         0.4287
     35 H14        -1.8954   -7.9504   -5.9628 H         1 <0>         0.3438
     36 H15        -2.9767   -7.3810   -2.7219 H         1 <0>         0.3913
     37 H16        -2.7707   -8.5585   -3.9024 H         1 <0>         0.4138
     38 H17        -2.3728   -5.1225   -3.1749 H         1 <0>         0.4255
@<TRIPOS>BOND
     1    1    2 1
     2    1   22 1
     3    1   23 1
     4    1   24 1
     5    2    3 1
     6    2    4 1
     7    3   25 1
     8    3   26 1
     9    3   27 1
    10    4    9 ar
    11    4    5 ar
    12    5    6 ar
    13    5   28 1
    14    6    7 ar
    15    6   29 1
    16    7    8 ar
    17    7   30 1
    18    8   13 ar
    19    8    9 ar
    20    9   10 ar
    21   10   11 ar
    22   10   31 1
    23   11   12 ar
    24   11   32 1
    25   12   13 ar
    26   12   33 1
    27   13   14 1
    28   14   15 2
    29   14   16 2
    30   14   17 1
    31   17   18 1
    32   17   34 1
    33   18   19 1
    34   18   38 1
    35   19   20 2
    36   19   21 1
    37   20   35 1
    38   21   36 1
    39   21   37 1
@<TRIPOS>MOLECULE
ZINC13808171
   38    39     0     0     0
SMALL
USER_CHARGES

@<TRIPOS>ATOM
      1 C1         -0.0178    1.4608    0.0101 C.3       1 <0>         0.1159
      2 N1          0.0021   -0.0041    0.0020 N.pl3     1 <0>        -0.6862
      3 C2          1.2806   -0.7192   -0.0140 C.3       1 <0>         0.1151
      4 C3         -1.1948   -0.7170    0.0096 C.ar      1 <0>         0.1806
      5 C4         -1.8010   -1.0716   -1.1770 C.ar      1 <0>        -0.1266
      6 C5         -2.9961   -1.7840   -1.1803 C.ar      1 <0>        -0.0965
      7 C6         -3.5998   -2.1499   -0.0157 C.ar      1 <0>        -0.1085
      8 C7         -3.0149   -1.8082    1.2154 C.ar      1 <0>         0.0348
      9 C8         -1.7950   -1.0880    1.2320 C.ar      1 <0>        -0.0804
     10 C9         -1.2096   -0.7518    2.4626 C.ar      1 <0>        -0.0325
     11 C10        -1.8169   -1.1258    3.6224 C.ar      1 <0>        -0.1557
     12 C11        -3.0136   -1.8396    3.6073 C.ar      1 <0>         0.0043
     13 C12        -3.6159   -2.1723    2.4329 C.ar      1 <0>        -0.6635
     14 S1         -5.1299   -3.0736    2.4385 S.o2      1 <0>         2.7280
     15 O1         -4.9589   -4.1605    1.5393 O.2       1 <0>        -0.9417
     16 O2         -5.4859   -3.2611    3.8013 O.2       1 <0>        -0.9608
     17 N2         -6.2874   -2.0906    1.7779 N.pl3     1 <0>        -0.9546
     18 N3         -6.1401   -1.6179    0.4673 N.2       1 <0>        -0.3847
     19 C13        -7.0480   -0.8468   -0.0508 C.2       1 <0>         0.5982
     20 N4         -8.1640   -0.4911    0.6940 N.pl3     1 <0>        -0.8886
     21 N5         -6.9022   -0.3785   -1.3493 N.pl3     1 <0>        -0.8428
     22 H1          1.0048    1.8381    0.0023 H         1 <0>         0.0673
     23 H2         -0.5450    1.8219   -0.8730 H         1 <0>         0.0419
     24 H3         -0.5280    1.8123    0.9069 H         1 <0>         0.0392
     25 H4          1.6074   -0.9021    1.0096 H         1 <0>         0.0337
     26 H5          1.1583   -1.6705   -0.5318 H         1 <0>         0.0564
     27 H6          2.0272   -0.1171   -0.5318 H         1 <0>         0.0601
     28 H7         -1.3430   -0.7929   -2.1146 H         1 <0>         0.1235
     29 H8         -3.4528   -2.0509   -2.1219 H         1 <0>         0.1271
     30 H9         -4.5276   -2.7021   -0.0384 H         1 <0>         0.1627
     31 H10        -0.2819   -0.1995    2.4893 H         1 <0>         0.1316
     32 H11        -1.3643   -0.8658    4.5679 H         1 <0>         0.1320
     33 H12        -3.4748   -2.1250    4.5413 H         1 <0>         0.1427
     34 H13        -7.0672   -1.8420    2.2984 H         1 <0>         0.3893
     35 H14        -6.1223   -0.6270   -1.8698 H         1 <0>         0.4200
     36 H15        -7.5801    0.1974   -1.7363 H         1 <0>         0.4094
     37 H16        -8.2660   -0.8184    1.6015 H         1 <0>         0.4079
     38 H17        -8.8420    0.0847    0.3071 H         1 <0>         0.4015
@<TRIPOS>BOND
     1    1    2 1
     2    1   22 1
     3    1   23 1
     4    1   24 1
     5    2    3 1
     6    2    4 1
     7    3   25 1
     8    3   26 1
     9    3   27 1
    10    4    9 ar
    11    4    5 ar
    12    5    6 ar
    13    5   28 1
    14    6    7 ar
    15    6   29 1
    16    7    8 ar
    17    7   30 1
    18    8   13 ar
    19    8    9 ar
    20    9   10 ar
    21   10   11 ar
    22   10   31 1
    23   11   12 ar
    24   11   32 1
    25   12   13 ar
    26   12   33 1
    27   13   14 1
    28   14   15 2
    29   14   16 2
    30   14   17 1
    31   17   18 1
    32   17   34 1
    33   18   19 2
    34   19   20 1
    35   19   21 1
    36   20   37 1
    37   20   38 1
    38   21   35 1
    39   21   36 1
@<TRIPOS>MOLECULE
ZINC13808035
   22    22     0     0     0
SMALL
USER_CHARGES

@<TRIPOS>ATOM
      1 C1         -0.0167    1.3782    0.0096 C.ar      1 <0>        -0.0049
      2 C2          1.1706    2.0858    0.0021 C.ar      1 <0>        -0.1325
      3 C3          2.3780    1.4104   -0.0130 C.ar      1 <0>         0.0166
      4 C4          2.3961    0.0270   -0.0206 C.ar      1 <0>        -0.1325
      5 C5          1.2082   -0.6795   -0.0130 C.ar      1 <0>        -0.0048
      6 C6          0.0021   -0.0041    0.0020 C.ar      1 <0>        -0.6356
      7 S1         -1.5119   -0.9054    0.0122 S.o2      1 <0>         2.6517
      8 O1         -1.2185   -2.1862    0.5533 O.2       1 <0>        -0.9846
      9 O2         -2.4924   -0.0460    0.5773 O.2       1 <0>        -0.9846
     10 N1         -1.9483   -1.1474   -1.5669 N.2       1 <0>        -1.0529
     11 C7         -3.0432   -1.7960   -1.8484 C.2       1 <0>         0.7506
     12 N2         -3.8359   -2.2793   -0.8344 N.pl3     1 <0>        -0.8790
     13 N3         -3.4055   -1.9969   -3.1593 N.pl3     1 <0>        -0.8161
     14 Cl1         3.8696    2.2984   -0.0231 Cl        1 <0>        -0.0537
     15 H1         -0.9592    1.9053    0.0259 H         1 <0>         0.1506
     16 H2          1.1558    3.1656    0.0076 H         1 <0>         0.1458
     17 H3          3.3383   -0.5007   -0.0327 H         1 <0>         0.1458
     18 H4          1.2222   -1.7594   -0.0193 H         1 <0>         0.1506
     19 H5         -3.5803   -2.1375    0.0906 H         1 <0>         0.4126
     20 H6         -4.6508   -2.7620   -1.0438 H         1 <0>         0.4144
     21 H7         -2.8462   -1.6559   -3.8747 H         1 <0>         0.4301
     22 H8         -4.2204   -2.4796   -3.3688 H         1 <0>         0.4125
@<TRIPOS>BOND
     1    1    6 ar
     2    1    2 ar
     3    1   15 1
     4    2    3 ar
     5    2   16 1
     6    3    4 ar
     7    3   14 1
     8    4    5 ar
     9    4   17 1
    10    5    6 ar
    11    5   18 1
    12    6    7 1
    13    7    8 2
    14    7    9 2
    15    7   10 1
    16   10   11 2
    17   11   12 1
    18   11   13 1
    19   12   19 1
    20   12   20 1
    21   13   21 1
    22   13   22 1
@<TRIPOS>MOLECULE
ZINC06405865
   28    28     0     0     0
SMALL
USER_CHARGES

@<TRIPOS>ATOM
      1 C1         -0.0173    1.4248    0.0099 C.3       1 <0>         0.0211
      2 O1          0.0021   -0.0041    0.0020 O.3       1 <0>        -0.3094
      3 C2          0.6258   -0.6184    1.0415 C.ar      1 <0>         0.1869
      4 C3          1.2022    0.1384    2.0513 C.ar      1 <0>        -0.2293
      5 C4          1.8353   -0.4884    3.1070 C.ar      1 <0>         0.0261
      6 C5          1.8951   -1.8688    3.1577 C.ar      1 <0>        -0.7213
      7 C6          1.3218   -2.6253    2.1523 C.ar      1 <0>         0.0147
      8 C7          0.6822   -2.0034    1.0976 C.ar      1 <0>        -0.1711
      9 S1          2.7038   -2.6653    4.5054 S.o2      1 <0>         2.7023
     10 O2          3.0980   -3.9492    4.0411 O.2       1 <0>        -0.9410
     11 O3          3.6322   -1.7279    5.0333 O.2       1 <0>        -0.9414
     12 N1          1.5645   -2.9163    5.6808 N.pl3     1 <0>        -0.8793
     13 N2          0.4366   -3.7010    5.4070 N.pl3     1 <0>        -0.5062
     14 C8          0.1392   -4.7796    6.2059 C.2       1 <0>         0.6353
     15 N3          0.9066   -5.0722    7.2180 N.2       1 <0>        -0.8102
     16 N4         -0.9676   -5.5496    5.9372 N.pl3     1 <0>        -0.8914
     17 H1          1.0053    1.8021    0.0021 H         1 <0>         0.0621
     18 H2         -0.5445    1.7859   -0.8732 H         1 <0>         0.1073
     19 H3         -0.5275    1.7763    0.9067 H         1 <0>         0.0617
     20 H4          1.1564    1.2167    2.0118 H         1 <0>         0.1408
     21 H5          2.2842    0.1003    3.8934 H         1 <0>         0.1461
     22 H6          1.3701   -3.7035    2.1940 H         1 <0>         0.1491
     23 H7          0.2307   -2.5948    0.3148 H         1 <0>         0.1437
     24 H8          1.6781   -2.5201    6.5589 H         1 <0>         0.4289
     25 H9          0.6967   -5.8332    7.7817 H         1 <0>         0.3441
     26 H10        -1.5387   -5.3318    5.1839 H         1 <0>         0.3914
     27 H11        -1.1775   -6.3106    6.5008 H         1 <0>         0.4140
     28 H12        -0.1344   -3.4832    4.6537 H         1 <0>         0.4249
@<TRIPOS>BOND
     1    1    2 1
     2    1   17 1
     3    1   18 1
     4    1   19 1
     5    2    3 1
     6    3    8 ar
     7    3    4 ar
     8    4    5 ar
     9    4   20 1
    10    5    6 ar
    11    5   21 1
    12    6    7 ar
    13    6    9 1
    14    7    8 ar
    15    7   22 1
    16    8   23 1
    17    9   10 2
    18    9   11 2
    19    9   12 1
    20   12   13 1
    21   12   24 1
    22   13   14 1
    23   13   28 1
    24   14   15 2
    25   14   16 1
    26   15   25 1
    27   16   26 1
    28   16   27 1
@<TRIPOS>MOLECULE
ZINC06405865
   28    28     0     0     0
SMALL
USER_CHARGES

@<TRIPOS>ATOM
      1 C1         -0.0173    1.4248    0.0099 C.3       1 <0>         0.0226
      2 O1          0.0021   -0.0041    0.0020 O.3       1 <0>        -0.3114
      3 C2          0.6058   -0.6071   -1.0557 C.ar      1 <0>         0.1817
      4 C3          1.1730    0.1607   -2.0624 C.ar      1 <0>        -0.2329
      5 C4          1.7865   -0.4547   -3.1363 C.ar      1 <0>         0.0186
      6 C5          1.8352   -1.8346   -3.2086 C.ar      1 <0>        -0.7041
      7 C6          1.2702   -2.6021   -2.2068 C.ar      1 <0>         0.0336
      8 C7          0.6609   -1.9915   -1.1277 C.ar      1 <0>        -0.1746
      9 S1          2.6179   -2.6165   -4.5800 S.o2      1 <0>         2.7309
     10 O2          2.0512   -3.9154   -4.6847 O.2       1 <0>        -0.9457
     11 O3          2.5875   -1.6833   -5.6512 O.2       1 <0>        -0.9614
     12 N1          4.2112   -2.8262   -4.1801 N.pl3     1 <0>        -0.9551
     13 N2          4.5574   -3.5985   -3.0636 N.2       1 <0>        -0.3828
     14 C8          5.8072   -3.7630   -2.7500 C.2       1 <0>         0.5941
     15 N3          6.7996   -3.1735   -3.5210 N.pl3     1 <0>        -0.8898
     16 N4          6.1502   -4.5282   -1.6438 N.pl3     1 <0>        -0.8437
     17 H1          1.0053    1.8021    0.0021 H         1 <0>         0.0595
     18 H2         -0.5445    1.7859   -0.8732 H         1 <0>         0.0605
     19 H3         -0.5275    1.7763    0.9067 H         1 <0>         0.1054
     20 H4          1.1347    1.2385   -2.0068 H         1 <0>         0.1370
     21 H5          2.2283    0.1425   -3.9203 H         1 <0>         0.1407
     22 H6          1.3092   -3.6798   -2.2657 H         1 <0>         0.1500
     23 H7          0.2237   -2.5913   -0.3432 H         1 <0>         0.1411
     24 H8          4.9047   -2.4143   -4.7188 H         1 <0>         0.3870
     25 H9          5.4567   -4.9401   -1.1051 H         1 <0>         0.4206
     26 H10         7.0835   -4.6510   -1.4096 H         1 <0>         0.4093
     27 H11         6.5599   -2.6388   -4.2940 H         1 <0>         0.4075
     28 H12         7.7329   -3.2963   -3.2868 H         1 <0>         0.4014
@<TRIPOS>BOND
     1    1    2 1
     2    1   17 1
     3    1   18 1
     4    1   19 1
     5    2    3 1
     6    3    8 ar
     7    3    4 ar
     8    4    5 ar
     9    4   20 1
    10    5    6 ar
    11    5   21 1
    12    6    7 ar
    13    6    9 1
    14    7    8 ar
    15    7   22 1
    16    8   23 1
    17    9   10 2
    18    9   11 2
    19    9   12 1
    20   12   13 1
    21   12   24 1
    22   13   14 2
    23   14   15 1
    24   14   16 1
    25   15   27 1
    26   15   28 1
    27   16   25 1
    28   16   26 1
