@<TRIPOS>MOLECULE
ZINC00901180
   24    24     0     0     0
SMALL
USER_CHARGES
cyclohexylmethanamine
@<TRIPOS>ATOM
      1 C1         -2.9042    1.5565    0.0381 C.3       1 <0>        -0.1281
      2 C2         -2.1881    1.0631   -1.2207 C.3       1 <0>        -0.1241
      3 C3         -0.7527    1.5927   -1.2315 C.3       1 <0>        -0.1146
      4 C4         -0.0127    1.0858    0.0080 C.3       1 <0>        -0.1151
      5 C5         -0.7288    1.5792    1.2668 C.3       1 <0>        -0.1282
      6 C6         -2.1642    1.0497    1.2777 C.3       1 <0>        -0.1227
      7 C7          1.4227    1.6154   -0.0028 C.3       1 <0>        -0.0004
      8 N1          2.1678    1.0335    1.1215 N.4       1 <0>        -0.6879
      9 H1         -3.9362    1.1757    0.0459 H         1 <0>         0.0719
     10 H2         -2.9192    2.6564    0.0441 H         1 <0>         0.0666
     11 H3         -2.1732   -0.0368   -1.2268 H         1 <0>         0.0668
     12 H4         -2.7201    1.4275   -2.1119 H         1 <0>         0.0745
     13 H5         -0.2378    1.2380   -2.1365 H         1 <0>         0.0737
     14 H6         -0.7676    2.6926   -1.2254 H         1 <0>         0.0739
     15 H7          0.0022   -0.0141    0.0019 H         1 <0>         0.0931
     16 H8         -0.1968    1.2148    2.1579 H         1 <0>         0.0571
     17 H9         -0.7437    2.6791    1.2729 H         1 <0>         0.0780
     18 H10        -2.6791    1.4045    2.1827 H         1 <0>         0.0731
     19 H11        -2.1493   -0.0502    1.2718 H         1 <0>         0.0672
     20 H12         1.9094    1.3362   -0.9489 H         1 <0>         0.1294
     21 H13         1.4100    2.7111    0.0936 H         1 <0>         0.1284
     22 H14         3.1998    1.4143    1.1137 H         1 <0>         0.4591
     23 H15         2.1805   -0.0622    1.0250 H         1 <0>         0.4554
     24 H16         1.6811    1.3127    2.0676 H         1 <0>         0.4526
@<TRIPOS>BOND
     1    1    6 1
     2    1    2 1
     3    1    9 1
     4    1   10 1
     5    2    3 1
     6    2   11 1
     7    2   12 1
     8    3    4 1
     9    3   13 1
    10    3   14 1
    11    4    5 1
    12    4    7 1
    13    4   15 1
    14    5    6 1
    15    5   16 1
    16    5   17 1
    17    6   18 1
    18    6   19 1
    19    7    8 1
    20    7   20 1
    21    7   21 1
    22    8   22 1
    23    8   23 1
    24    8   24 1
@<TRIPOS>MOLECULE
ZINC01442764
   24    25     0     0     0
SMALL
USER_CHARGES
naphthalene-2-carboxamidine
@<TRIPOS>ATOM
      1 C1         -3.1410   -0.6575    0.0279 C.ar      1 <0>        -0.0776
      2 C2         -2.6965   -1.9784    0.0163 C.ar      1 <0>        -0.1013
      3 C3         -1.3672   -2.2695    0.0023 C.ar      1 <0>        -0.0968
      4 C4         -0.4258   -1.2247   -0.0011 C.ar      1 <0>        -0.0668
      5 C5          0.9522   -1.4896   -0.0149 C.ar      1 <0>        -0.0163
      6 C6          1.8477   -0.4351   -0.0173 C.ar      1 <0>        -0.1551
      7 C7          1.3873    0.8928   -0.0059 C.ar      1 <0>        -0.0953
      8 C8          0.0582    1.1688    0.0071 C.ar      1 <0>        -0.0786
      9 C9         -0.8783    0.1190    0.0103 C.ar      1 <0>        -0.0140
     10 C10        -2.2588    0.3792    0.0305 C.ar      1 <0>        -0.1149
     11 C11         3.3027   -0.7075   -0.0324 C.cat     1 <0>         0.5994
     12 N1          4.1996    0.3386   -0.0348 N.pl3     1 <0>        -0.7797
     13 H1         -4.2015   -0.4534    0.0396 H         1 <0>         0.1391
     14 H2         -3.4174   -2.7825    0.0188 H         1 <0>         0.1387
     15 H3         -1.0369   -3.2977   -0.0060 H         1 <0>         0.1392
     16 H4          1.3107   -2.5083   -0.0241 H         1 <0>         0.1398
     17 H5          2.1002    1.7041   -0.0080 H         1 <0>         0.1350
     18 H6         -0.2804    2.1944    0.0153 H         1 <0>         0.1490
     19 H7         -2.6187    1.3975    0.0397 H         1 <0>         0.1421
     20 H8          4.6694   -2.2166   -0.0536 H         1 <0>         0.4443
     21 H9          3.8775    1.2535   -0.0266 H         1 <0>         0.4434
     22 H10         5.1529    0.1600   -0.0446 H         1 <0>         0.4308
     23 N2          3.6777   -1.9777   -0.0431 N.pl3     1 <0>        -0.7631
     24 H11         2.9703   -2.7219   -0.0409 H         1 <0>         0.4587
@<TRIPOS>BOND
     1    1   10 ar
     2    1    2 ar
     3    1   13 1
     4    2    3 ar
     5    2   14 1
     6    3    4 ar
     7    3   15 1
     8    4    9 ar
     9    4    5 ar
    10    5    6 ar
    11    5   16 1
    12    6    7 ar
    13    6   11 1
    14    7    8 ar
    15    7   17 1
    16    8    9 ar
    17    8   18 1
    18    9   10 ar
    19   10   19 1
    20   11   12 1
    21   11   23 2
    22   12   21 1
    23   12   22 1
    24   20   23 1
    25   23   24 1
@<TRIPOS>MOLECULE
ZINC03778392
   49    52     0     0     0
SMALL
USER_CHARGES
(6-amidino-2-naphthyl) 4-(4,5-dihydro-1H-imidazol-2-ylamino)benzoate
@<TRIPOS>ATOM
      1 C1          6.7793    2.0604   -3.5073 C.ar      1 <0>        -0.0034
      2 C2          5.8742    1.0705   -3.8148 C.ar      1 <0>        -0.1339
      3 C3          4.5223    1.3764   -3.9418 C.ar      1 <0>         0.1718
      4 C4          4.0818    2.6848   -3.7646 C.ar      1 <0>        -0.2022
      5 C5          4.9807    3.6788   -3.4517 C.ar      1 <0>        -0.0129
      6 C6          6.3396    3.3750   -3.3228 C.ar      1 <0>        -0.1277
      7 C7          7.3062    4.4380   -2.9929 C.2       1 <0>         0.5084
      8 O1          8.4867    4.1723   -2.8808 O.2       1 <0>        -0.4673
      9 O2          6.8806    5.7044   -2.8154 O.3       1 <0>        -0.2880
     10 C8          7.8330    6.6536   -2.6208 C.ar      1 <0>         0.1249
     11 C9          8.7272    6.9579   -3.6527 C.ar      1 <0>        -0.1157
     12 C10         9.6870    7.9062   -3.4875 C.ar      1 <0>        -0.0687
     13 C11         9.7953    8.5880   -2.2616 C.ar      1 <0>        -0.0652
     14 C12        10.7803    9.5671   -2.0639 C.ar      1 <0>        -0.0147
     15 C13        10.8590   10.2182   -0.8453 C.ar      1 <0>        -0.1474
     16 C14         9.9619    9.9055    0.1908 C.ar      1 <0>        -0.0859
     17 C15         9.0024    8.9609    0.0189 C.ar      1 <0>        -0.0780
     18 C16         8.8958    8.2811   -1.2087 C.ar      1 <0>        -0.0006
     19 C17         7.9109    7.3008   -1.4087 C.ar      1 <0>        -0.1097
     20 C18        11.8957   11.2522   -0.6314 C.cat     1 <0>         0.5982
     21 N1         11.9791   11.9041    0.5800 N.pl3     1 <0>        -0.7768
     22 N2          3.6088    0.3718   -4.2528 N.pl3     1 <0>        -0.6321
     23 C19         2.2925    0.4944   -3.8666 C.cat     1 <0>         0.7162
     24 C20         0.4249    1.3158   -2.8800 C.3       1 <0>         0.0664
     25 C21         0.0419    0.0445   -3.6635 C.3       1 <0>         0.0824
     26 N3          1.3220   -0.3920   -4.2458 N.pl3     1 <0>        -0.6815
     27 H1          7.8281    1.8222   -3.4082 H         1 <0>         0.1607
     28 H2          6.2131    0.0551   -3.9574 H         1 <0>         0.1561
     29 H3          3.0327    2.9194   -3.8682 H         1 <0>         0.1479
     30 H4          4.6377    4.6929   -3.3100 H         1 <0>         0.1591
     31 H5          8.6515    6.4350   -4.5945 H         1 <0>         0.1417
     32 H6         10.3676    8.1332   -4.2947 H         1 <0>         0.1498
     33 H7         11.4717    9.8113   -2.8569 H         1 <0>         0.1444
     34 H8         10.0376   10.4230    1.1356 H         1 <0>         0.1399
     35 H9          8.3201    8.7317    0.8240 H         1 <0>         0.1525
     36 H10         7.2186    7.0565   -0.6166 H         1 <0>         0.1524
     37 H11        13.4438   12.2095   -1.5444 H         1 <0>         0.4467
     38 H12        11.3583   11.6850    1.2924 H         1 <0>         0.4437
     39 H13        12.6586   12.5819    0.7203 H         1 <0>         0.4329
     40 H14         3.8998   -0.4140   -4.7413 H         1 <0>         0.4478
     41 H15         0.2217    1.1897   -1.8165 H         1 <0>         0.1269
     42 H16        -0.1123    2.1799   -3.2707 H         1 <0>         0.1273
     43 H17        -0.6784    0.2763   -4.4480 H         1 <0>         0.1239
     44 H18        -0.3531   -0.7157   -2.9897 H         1 <0>         0.1231
     45 H19         1.4538   -1.1726   -4.8063 H         1 <0>         0.4568
     46 N4         12.7126   11.5050   -1.6430 N.pl3     1 <0>        -0.7603
     47 H20        12.6098   10.9919   -2.5264 H         1 <0>         0.4588
     48 N5          1.8710    1.4602   -3.1139 N.pl3     1 <0>        -0.6593
     49 H21         2.4576    2.2137   -2.7367 H         1 <0>         0.4710
@<TRIPOS>BOND
     1    1    6 ar
     2    1    2 ar
     3    1   27 1
     4    2    3 ar
     5    2   28 1
     6    3    4 ar
     7    3   22 1
     8    4    5 ar
     9    4   29 1
    10    5    6 ar
    11    5   30 1
    12    6    7 1
    13    7    8 2
    14    7    9 1
    15    9   10 1
    16   10   19 ar
    17   10   11 ar
    18   11   12 ar
    19   11   31 1
    20   12   13 ar
    21   12   32 1
    22   13   18 ar
    23   13   14 ar
    24   14   15 ar
    25   14   33 1
    26   15   16 ar
    27   15   20 1
    28   16   17 ar
    29   16   34 1
    30   17   18 ar
    31   17   35 1
    32   18   19 ar
    33   19   36 1
    34   20   21 1
    35   20   46 2
    36   21   38 1
    37   21   39 1
    38   22   23 1
    39   22   40 1
    40   23   26 1
    41   23   48 2
    42   24   25 1
    43   24   41 1
    44   24   42 1
    45   24   48 1
    46   25   26 1
    47   25   43 1
    48   25   44 1
    49   26   45 1
    50   37   46 1
    51   46   47 1
    52   48   49 1
@<TRIPOS>MOLECULE
ZINC01552537
   52    53     0     0     0
SMALL
USER_CHARGES
4-[4-(4-amidino-2-amino-phenoxy)butoxy]-3-amino-benzamidine
@<TRIPOS>ATOM
      1 C1         -1.5071   -2.1950    0.0005 C.ar      1 <0>        -0.0647
      2 C2         -0.1367   -2.0384   -0.0061 C.ar      1 <0>        -0.1693
      3 C3          0.4194   -0.7679   -0.0046 C.ar      1 <0>         0.1280
      4 C4         -0.4056    0.3571    0.0089 C.ar      1 <0>         0.2074
      5 C5         -1.7809    0.2050    0.0210 C.ar      1 <0>        -0.1282
      6 C6         -2.3382   -1.0745    0.0194 C.ar      1 <0>        -0.1443
      7 C7         -3.8079   -1.2424    0.0324 C.cat     1 <0>         0.6016
      8 N1         -4.3571   -2.5064    0.0309 N.pl3     1 <0>        -0.7824
      9 N2          0.1575    1.6386    0.0109 N.pl3     1 <0>        -0.8599
     10 O1          1.7699   -0.6185   -0.0169 O.3       1 <0>        -0.3058
     11 C8          2.5546   -1.8127   -0.0310 C.3       1 <0>         0.0579
     12 C9          4.0402   -1.4467   -0.0433 C.3       1 <0>        -0.1183
     13 C10         4.8803   -2.7253   -0.0584 C.3       1 <0>        -0.1184
     14 C11         6.3658   -2.3594   -0.0709 C.3       1 <0>         0.0579
     15 O2          7.1505   -3.5536   -0.0849 O.3       1 <0>        -0.3058
     16 C12         8.5010   -3.4042   -0.0972 C.ar      1 <0>         0.1280
     17 C13         9.0570   -2.1337   -0.0957 C.ar      1 <0>        -0.1693
     18 C14        10.4274   -1.9770   -0.1081 C.ar      1 <0>        -0.0646
     19 C15        11.2586   -3.0975   -0.1222 C.ar      1 <0>        -0.1444
     20 C16        10.7013   -4.3771   -0.1237 C.ar      1 <0>        -0.1282
     21 C17         9.3260   -4.5292   -0.1055 C.ar      1 <0>         0.2073
     22 N3          8.7630   -5.8108   -0.1012 N.pl3     1 <0>        -0.8599
     23 C18        12.7283   -2.9297   -0.1360 C.cat     1 <0>         0.6016
     24 N4         13.2775   -1.6656   -0.1350 N.pl3     1 <0>        -0.7824
     25 H1         -1.9370   -3.1857   -0.0051 H         1 <0>         0.1381
     26 H2          0.5049   -2.9071   -0.0171 H         1 <0>         0.1502
     27 H3         -2.4215    1.0745    0.0312 H         1 <0>         0.1400
     28 H4         -5.5588   -0.2023    0.0542 H         1 <0>         0.4438
     29 H5         -3.7800   -3.2859    0.0213 H         1 <0>         0.4420
     30 H6         -5.3209   -2.6165    0.0393 H         1 <0>         0.4311
     31 H7          1.1217    1.7448    0.0029 H         1 <0>         0.4134
     32 H8         -0.4165    2.4206    0.0204 H         1 <0>         0.4079
     33 H9          2.3333   -2.4034    0.8580 H         1 <0>         0.0739
     34 H10         2.3161   -2.3937   -0.9218 H         1 <0>         0.0739
     35 H11         4.2614   -0.8560   -0.9324 H         1 <0>         0.0832
     36 H12         4.2787   -0.8657    0.8475 H         1 <0>         0.0832
     37 H13         4.6590   -3.3160    0.8306 H         1 <0>         0.0832
     38 H14         4.6418   -3.3063   -0.9493 H         1 <0>         0.0832
     39 H15         6.5870   -1.7687   -0.9598 H         1 <0>         0.0740
     40 H16         6.6043   -1.7784    0.8201 H         1 <0>         0.0739
     41 H17         8.4156   -1.2649   -0.0844 H         1 <0>         0.1502
     42 H18        10.8573   -0.9864   -0.1066 H         1 <0>         0.1380
     43 H19        11.3418   -5.2466   -0.1346 H         1 <0>         0.1400
     44 H20         7.7989   -5.9169   -0.0924 H         1 <0>         0.4133
     45 H21         9.3370   -6.5927   -0.1070 H         1 <0>         0.4079
     46 H22        14.4791   -3.9698   -0.1590 H         1 <0>         0.4437
     47 H23        12.7004   -0.8861   -0.1252 H         1 <0>         0.4420
     48 H24        14.2412   -1.5556   -0.1440 H         1 <0>         0.4311
     49 N5         -4.5407   -0.1386    0.0451 N.pl3     1 <0>        -0.7614
     50 H25        -4.0838    0.7809    0.0457 H         1 <0>         0.4588
     51 N6         13.4611   -4.0335   -0.1491 N.pl3     1 <0>        -0.7614
     52 H26        13.0042   -4.9530   -0.1492 H         1 <0>         0.4588
@<TRIPOS>BOND
     1    1    6 ar
     2    1    2 ar
     3    1   25 1
     4    2    3 ar
     5    2   26 1
     6    3    4 ar
     7    3   10 1
     8    4    5 ar
     9    4    9 1
    10    5    6 ar
    11    5   27 1
    12    6    7 1
    13    7    8 1
    14    7   49 2
    15    8   29 1
    16    8   30 1
    17    9   31 1
    18    9   32 1
    19   10   11 1
    20   11   12 1
    21   11   33 1
    22   11   34 1
    23   12   13 1
    24   12   35 1
    25   12   36 1
    26   13   14 1
    27   13   37 1
    28   13   38 1
    29   14   15 1
    30   14   39 1
    31   14   40 1
    32   15   16 1
    33   16   21 ar
    34   16   17 ar
    35   17   18 ar
    36   17   41 1
    37   18   19 ar
    38   18   42 1
    39   19   20 ar
    40   19   23 1
    41   20   21 ar
    42   20   43 1
    43   21   22 1
    44   22   44 1
    45   22   45 1
    46   23   24 1
    47   23   51 2
    48   24   47 1
    49   24   48 1
    50   28   49 1
    51   46   51 1
    52   49   50 1
    53   51   52 1
@<TRIPOS>MOLECULE
ZINC27433071
   51    52     0     0     0
SMALL
USER_CHARGES
4-[3-[(4-carbamimidoyl-2-nitro-phenyl)amino]propylamino]-3-nitro-benzamidine
@<TRIPOS>ATOM
      1 C1         -1.3830   -3.7196   -2.3370 C.ar      1 <0>         0.0265
      2 C2         -1.1402   -2.4172   -1.9609 C.ar      1 <0>        -0.1920
      3 C3         -2.1998   -1.5311   -1.7936 C.ar      1 <0>         0.3272
      4 C4         -3.5073   -1.9593   -2.0006 C.ar      1 <0>        -0.1186
      5 C5         -3.7552   -3.2589   -2.3828 C.ar      1 <0>         0.0485
      6 C6         -2.6938   -4.1503   -2.5509 C.ar      1 <0>        -0.2073
      7 C7         -2.9574   -5.5480   -2.9553 C.cat     1 <0>         0.6012
      8 N1         -4.1816   -5.9490   -3.1547 N.pl3     1 <0>        -0.7769
      9 N2         -1.9087   -6.4268   -3.1214 N.pl3     1 <0>        -0.8244
     10 N3         -4.6325   -1.0156   -1.8158 N.pl3     1 <0>         0.0285
     11 O1         -5.6683   -1.3963   -1.3005 O.2       1 <0>        -0.1148
     12 O2         -4.5225    0.1418   -2.1790 O.3       1 <0>        -0.1668
     13 N4         -1.9515   -0.2150   -1.4128 N.pl3     1 <0>        -0.7126
     14 C8         -0.5838    0.2149   -1.1117 C.3       1 <0>         0.1113
     15 C9         -0.5882    1.6946   -0.7225 C.3       1 <0>        -0.1541
     16 C10         0.8402    2.1435   -0.4080 C.3       1 <0>         0.1125
     17 N5          0.8359    3.5603   -0.0354 N.pl3     1 <0>        -0.7116
     18 C11         2.0293    4.1966    0.2962 C.ar      1 <0>         0.3273
     19 C12         3.2387    3.5246    0.1493 C.ar      1 <0>        -0.1920
     20 C13         4.4204    4.1518    0.4761 C.ar      1 <0>         0.0265
     21 C14         4.4040    5.4630    0.9555 C.ar      1 <0>        -0.2071
     22 C15         3.1889    6.1349    1.1024 C.ar      1 <0>         0.0482
     23 C16         2.0106    5.5053    0.7684 C.ar      1 <0>        -0.1184
     24 N6          0.7226    6.2192    0.9176 N.pl3     1 <0>         0.0273
     25 O3          0.6484    7.4044    0.6469 O.2       1 <0>        -0.1185
     26 O4         -0.2630    5.6215    1.3111 O.3       1 <0>        -0.1626
     27 C17         5.6713    6.1387    1.3077 C.cat     1 <0>         0.6012
     28 N7          5.6547    7.3629    1.7552 N.pl3     1 <0>        -0.7769
     29 N8          6.8700    5.4741    1.1627 N.pl3     1 <0>        -0.8244
     30 H1         -0.5603   -4.4072   -2.4661 H         1 <0>         0.1522
     31 H2         -0.1265   -2.0835   -1.7954 H         1 <0>         0.1622
     32 H3         -4.7700   -3.5896   -2.5476 H         1 <0>         0.1561
     33 H4         -4.3777   -6.9887   -3.4555 H         1 <0>         0.4668
     34 H5         -2.1048   -7.4665   -3.4222 H         1 <0>         0.4600
     35 H6         -0.8756   -6.0884   -2.9531 H         1 <0>         0.4642
     36 H7         -2.7824    0.5019   -1.3381 H         1 <0>         0.4496
     37 H8         -0.1870   -0.3824   -0.2776 H         1 <0>         0.0847
     38 H9          0.0496    0.0712   -1.9995 H         1 <0>         0.0859
     39 H10        -0.9850    2.2919   -1.5566 H         1 <0>         0.0926
     40 H11        -1.2216    1.8384    0.1653 H         1 <0>         0.0934
     41 H12         1.2370    1.5462    0.4261 H         1 <0>         0.0864
     42 H13         1.4736    1.9997   -1.2958 H         1 <0>         0.0842
     43 H14        -0.1100    4.1214   -0.0176 H         1 <0>         0.4481
     44 H15         3.2508    2.5104   -0.2216 H         1 <0>         0.1622
     45 H16         5.3589    3.6300    0.3613 H         1 <0>         0.1522
     46 H17         3.1736    7.1492    1.4731 H         1 <0>         0.1562
     47 H18         6.5974    7.8656    2.0172 H         1 <0>         0.4668
     48 H19         7.8127    5.9767    1.4247 H         1 <0>         0.4600
     49 H20         6.8840    4.4411    0.7850 H         1 <0>         0.4642
     50 H21        -5.0186   -5.2476   -3.0221 H         1 <0>         0.4724
     51 H22         4.6980    7.8933    1.8708 H         1 <0>         0.4725
@<TRIPOS>BOND
     1    1    6 ar
     2    1    2 ar
     3    1   30 1
     4    2    3 ar
     5    2   31 1
     6    3    4 ar
     7    3   13 1
     8    4    5 ar
     9    4   10 1
    10    5    6 ar
    11    5   32 1
    12    6    7 1
    13    7    8 2
    14    7    9 1
    15    8   33 1
    16    8   50 1
    17    9   34 1
    18    9   35 1
    19   10   11 2
    20   10   12 1
    21   13   14 1
    22   13   36 1
    23   14   15 1
    24   14   37 1
    25   14   38 1
    26   15   16 1
    27   15   39 1
    28   15   40 1
    29   16   17 1
    30   16   41 1
    31   16   42 1
    32   17   18 1
    33   17   43 1
    34   18   23 ar
    35   18   19 ar
    36   19   20 ar
    37   19   44 1
    38   20   21 ar
    39   20   45 1
    40   21   22 ar
    41   21   27 1
    42   22   23 ar
    43   22   46 1
    44   23   24 1
    45   24   25 2
    46   24   26 1
    47   27   28 2
    48   27   29 1
    49   28   47 1
    50   28   51 1
    51   29   48 1
    52   29   49 1
@<TRIPOS>MOLECULE
ZINC01552535
   47    48     0     0     0
SMALL
USER_CHARGES
4-[3-(4-amidinophenyl)aminopropylamino]benzamidine
@<TRIPOS>ATOM
      1 C1         -4.8615   -3.5912    0.0023 C.ar      1 <0>        -0.0075
      2 C2         -3.6582   -4.2609   -0.0078 C.ar      1 <0>        -0.1920
      3 C3         -2.4636   -3.5476   -0.0084 C.ar      1 <0>         0.2804
      4 C4         -2.4811   -2.1565    0.0071 C.ar      1 <0>        -0.2002
      5 C5         -3.6816   -1.4818    0.0115 C.ar      1 <0>        -0.0017
      6 C6         -4.8818   -2.1951    0.0121 C.ar      1 <0>        -0.2240
      7 C7         -6.1724   -1.4734    0.0226 C.cat     1 <0>         0.6014
      8 N1         -6.1911   -0.0952    0.0322 N.pl3     1 <0>        -0.7891
      9 N2         -1.2483   -4.2274   -0.0186 N.pl3     1 <0>        -0.7215
     10 C8          0.0102   -3.4776   -0.0253 C.3       1 <0>         0.1159
     11 C9          1.1866   -4.4558   -0.0430 C.3       1 <0>        -0.1491
     12 C10         2.5009   -3.6727   -0.0501 C.3       1 <0>         0.1159
     13 N3          3.6273   -4.6095   -0.0671 N.pl3     1 <0>        -0.7216
     14 C11         4.9337   -4.1274   -0.0760 C.ar      1 <0>         0.2804
     15 C12         5.1678   -2.7559   -0.0746 C.ar      1 <0>        -0.2002
     16 C13         6.4588   -2.2765   -0.0777 C.ar      1 <0>        -0.0017
     17 C14         7.5331   -3.1681   -0.0938 C.ar      1 <0>        -0.2240
     18 C15         7.2953   -4.5439   -0.1010 C.ar      1 <0>        -0.0075
     19 C16         6.0024   -5.0180   -0.0921 C.ar      1 <0>        -0.1920
     20 C17         8.9204   -2.6563   -0.1029 C.cat     1 <0>         0.6014
     21 N4          9.1537   -1.2979   -0.0958 N.pl3     1 <0>        -0.7890
     22 H1         -5.7885   -4.1452    0.0024 H         1 <0>         0.1359
     23 H2         -3.6419   -5.3407   -0.0157 H         1 <0>         0.1448
     24 H3         -1.5524   -1.6052    0.0111 H         1 <0>         0.1423
     25 H4         -3.6947   -0.4019    0.0192 H         1 <0>         0.1362
     26 H5         -8.1893   -1.7573    0.0291 H         1 <0>         0.4424
     27 H6         -5.3578    0.4013    0.0321 H         1 <0>         0.4399
     28 H7         -7.0377    0.3783    0.0390 H         1 <0>         0.4296
     29 H8         -1.2351   -5.1973   -0.0254 H         1 <0>         0.4125
     30 H9          0.0511   -2.8441   -0.9114 H         1 <0>         0.0772
     31 H10         0.0679   -2.8563    0.8685 H         1 <0>         0.0773
     32 H11         1.1457   -5.0892    0.8430 H         1 <0>         0.0851
     33 H12         1.1290   -5.0771   -0.9369 H         1 <0>         0.0850
     34 H13         2.5418   -3.0393   -0.9361 H         1 <0>         0.0772
     35 H14         2.5586   -3.0515    0.8438 H         1 <0>         0.0772
     36 H15         3.4630   -5.5654   -0.0721 H         1 <0>         0.4125
     37 H16         4.3364   -2.0666   -0.0665 H         1 <0>         0.1423
     38 H17         6.6400   -1.2119   -0.0721 H         1 <0>         0.1362
     39 H18         8.1246   -5.2357   -0.1132 H         1 <0>         0.1359
     40 H19         5.8180   -6.0821   -0.0974 H         1 <0>         0.1448
     41 H20        10.8683   -3.2510   -0.1245 H         1 <0>         0.4424
     42 H21         8.4080   -0.6777   -0.0848 H         1 <0>         0.4399
     43 H22        10.0637   -0.9621   -0.1017 H         1 <0>         0.4296
     44 N5         -7.2747   -2.2090    0.0220 N.pl3     1 <0>        -0.7680
     45 H23        -7.2081   -3.2336    0.0146 H         1 <0>         0.4575
     46 N6          9.8945   -3.5547   -0.1177 N.pl3     1 <0>        -0.7680
     47 H24         9.6690   -4.5563   -0.1225 H         1 <0>         0.4575
@<TRIPOS>BOND
     1    1    6 ar
     2    1    2 ar
     3    1   22 1
     4    2    3 ar
     5    2   23 1
     6    3    4 ar
     7    3    9 1
     8    4    5 ar
     9    4   24 1
    10    5    6 ar
    11    5   25 1
    12    6    7 1
    13    7    8 1
    14    7   44 2
    15    8   27 1
    16    8   28 1
    17    9   10 1
    18    9   29 1
    19   10   11 1
    20   10   30 1
    21   10   31 1
    22   11   12 1
    23   11   32 1
    24   11   33 1
    25   12   13 1
    26   12   34 1
    27   12   35 1
    28   13   14 1
    29   13   36 1
    30   14   19 ar
    31   14   15 ar
    32   15   16 ar
    33   15   37 1
    34   16   17 ar
    35   16   38 1
    36   17   18 ar
    37   17   20 1
    38   18   19 ar
    39   18   39 1
    40   19   40 1
    41   20   21 1
    42   20   46 2
    43   21   42 1
    44   21   43 1
    45   26   44 1
    46   41   46 1
    47   44   45 1
    48   46   47 1
@<TRIPOS>MOLECULE
ZINC00157595
   18    18     0     0     0
SMALL
USER_CHARGES
(4-fluorophenyl)methanamine
@<TRIPOS>ATOM
      1 C1         -0.3594    2.7790    1.8183 C.ar      1 <0>        -0.0610
      2 C2         -1.0088    3.2279    2.9525 C.ar      1 <0>        -0.1531
      3 C3         -2.0119    2.4633    3.5237 C.ar      1 <0>         0.1436
      4 C4         -2.3667    1.2519    2.9546 C.ar      1 <0>        -0.1530
      5 C5         -1.7194    0.8075    1.8173 C.ar      1 <0>        -0.0602
      6 C6         -0.7181    1.5718    1.2479 C.ar      1 <0>        -0.1893
      7 C7         -0.0127    1.0858    0.0080 C.3       1 <0>         0.0546
      8 F1         -2.6442    2.8989    4.6352 F         1 <0>        -0.1209
      9 H1          0.4258    3.3733    1.3749 H         1 <0>         0.1432
     10 H2         -0.7313    4.1730    3.3956 H         1 <0>         0.1503
     11 H3         -3.1491    0.6548    3.3991 H         1 <0>         0.1503
     12 H4         -1.9962   -0.1372    1.3730 H         1 <0>         0.1433
     13 H5          0.0021   -0.0041    0.0020 H         1 <0>         0.1427
     14 H6          1.0099    1.4631    0.0003 H         1 <0>         0.1398
     15 H7         -0.2694    1.2597   -2.0273 H         1 <0>         0.4406
     16 H8         -1.6917    1.2898   -1.1659 H         1 <0>         0.4368
     17 N1         -0.7207    1.5974   -1.1788 N.4       1 <0>        -0.6465
     18 H9         -0.6943    2.6238   -1.1711 H         1 <0>         0.4389
@<TRIPOS>BOND
     1    1    6 ar
     2    1    2 ar
     3    1    9 1
     4    2    3 ar
     5    2   10 1
     6    3    4 ar
     7    3    8 1
     8    4    5 ar
     9    4   11 1
    10    5    6 ar
    11    5   12 1
    12    6    7 1
    13    7   13 1
    14    7   14 1
    15    7   17 1
    16   15   17 1
    17   16   17 1
    18   17   18 1
@<TRIPOS>MOLECULE
ZINC02006270
   57    60     0     0     0
SMALL
USER_CHARGES

@<TRIPOS>ATOM
      1 C1         -1.3381   -1.7836    3.6515 C.3       1 <0>        -0.0827
      2 C2         -0.7136   -1.9784    2.2939 C.2       1 <0>         0.0922
      3 C3         -0.5795   -3.1955    1.6307 C.2       1 <0>        -0.1907
      4 C4          0.0407   -2.9486    0.4218 C.2       1 <0>         0.0345
      5 N1          0.2760   -1.6008    0.3602 N.pl3     1 <0>        -0.3139
      6 N2         -0.2128   -1.0296    1.5418 N.2       1 <0>        -0.2589
      7 C5          0.8895   -0.9165   -0.6964 C.ar      1 <0>         0.1624
      8 C6          0.4621   -1.1269   -2.0021 C.ar      1 <0>        -0.0185
      9 C7          1.0644   -0.4538   -3.0480 C.ar      1 <0>        -0.0948
     10 C8          2.0942    0.4322   -2.8027 C.ar      1 <0>        -0.0532
     11 C9          2.5304    0.6502   -1.4954 C.ar      1 <0>        -0.1496
     12 C10         1.9193   -0.0248   -0.4395 C.ar      1 <0>        -0.0512
     13 C11         3.6348    1.5988   -1.2299 C.cat     1 <0>         0.6060
     14 N3          4.5844    1.7876   -2.1439 N.pl3     1 <0>        -0.7565
     15 N4          3.6789    2.2634   -0.0771 N.pl3     1 <0>        -0.7572
     16 C12         0.3840   -3.9441   -0.6044 C.2       1 <0>         0.5850
     17 O1          1.0295   -3.6133   -1.5809 O.2       1 <0>        -0.5119
     18 N5         -0.0166   -5.2232   -0.4630 N.am      1 <0>        -0.6457
     19 C13         0.3154   -6.1707   -1.4349 C.ar      1 <0>         0.1558
     20 C14         0.5114   -5.7739   -2.7526 C.ar      1 <0>        -0.1411
     21 C15         0.8395   -6.7070   -3.7129 C.ar      1 <0>        -0.0692
     22 C16         0.9746   -8.0493   -3.3617 C.ar      1 <0>        -0.1334
     23 C17         0.7776   -8.4450   -2.0396 C.ar      1 <0>        -0.0038
     24 C18         0.4549   -7.5078   -1.0815 C.ar      1 <0>        -0.1461
     25 C19         1.3271   -9.0552   -4.3935 C.ar      1 <0>         0.0588
     26 C20         0.4468   -9.3206   -5.4411 C.ar      1 <0>        -0.1270
     27 C21         0.7798  -10.2574   -6.3980 C.ar      1 <0>        -0.0563
     28 C22         1.9848  -10.9325   -6.3190 C.ar      1 <0>        -0.1368
     29 C23         2.8619  -10.6734   -5.2815 C.ar      1 <0>        -0.0159
     30 C24         2.5419   -9.7340   -4.3221 C.ar      1 <0>        -0.6669
     31 S1          3.6639   -9.3995   -3.0054 S.o2      1 <0>         2.6940
     32 O2          2.8874   -9.3328   -1.8172 O.2       1 <0>        -0.9533
     33 O3          4.7489  -10.3045   -3.1566 O.2       1 <0>        -0.9646
     34 N6          4.2754   -7.8812   -3.2569 N.pl3     1 <0>        -1.2459
     35 H1         -2.4067   -1.6018    3.5371 H         1 <0>         0.0892
     36 H2         -1.1844   -2.6789    4.2540 H         1 <0>         0.0894
     37 H3         -0.8750   -0.9294    4.1453 H         1 <0>         0.0810
     38 H4         -0.9022   -4.1591    1.9962 H         1 <0>         0.1697
     39 H5         -0.3432   -1.8189   -2.2000 H         1 <0>         0.1459
     40 H6          0.7287   -0.6218   -4.0607 H         1 <0>         0.1580
     41 H7          2.5625    0.9563   -3.6227 H         1 <0>         0.1470
     42 H8          2.2501    0.1432    0.5747 H         1 <0>         0.1457
     43 H9          4.5523    1.3034   -2.9838 H         1 <0>         0.4470
     44 H10         2.9871    2.1258    0.5888 H         1 <0>         0.4470
     45 H11         4.4028    2.8852    0.0969 H         1 <0>         0.4343
     46 H12        -0.5353   -5.4860    0.3133 H         1 <0>         0.4184
     47 H13         0.4063   -4.7340   -3.0243 H         1 <0>         0.1458
     48 H14         0.9913   -6.3983   -4.7367 H         1 <0>         0.1291
     49 H15         0.8815   -9.4844   -1.7654 H         1 <0>         0.1489
     50 H16         0.3065   -7.8132   -0.0562 H         1 <0>         0.1330
     51 H17        -0.4942   -8.7944   -5.5035 H         1 <0>         0.1357
     52 H18         0.0984  -10.4642   -7.2100 H         1 <0>         0.1363
     53 H19         2.2414  -11.6649   -7.0701 H         1 <0>         0.1377
     54 H20         3.8009  -11.2039   -5.2243 H         1 <0>         0.1479
     55 H21         3.9905   -7.3651   -4.0272 H         1 <0>         0.4152
     56 H22         4.9185   -7.5080   -2.6340 H         1 <0>         0.4200
     57 H23         5.3083    2.4094   -1.9699 H         1 <0>         0.4344
@<TRIPOS>BOND
     1    1    2 1
     2    1   35 1
     3    1   36 1
     4    1   37 1
     5    2    6 2
     6    2    3 1
     7    3    4 2
     8    3   38 1
     9    4    5 1
    10    4   16 1
    11    5    6 1
    12    5    7 1
    13    7   12 ar
    14    7    8 ar
    15    8    9 ar
    16    8   39 1
    17    9   10 ar
    18    9   40 1
    19   10   11 ar
    20   10   41 1
    21   11   12 ar
    22   11   13 1
    23   12   42 1
    24   13   14 2
    25   13   15 1
    26   14   43 1
    27   14   57 1
    28   15   44 1
    29   15   45 1
    30   16   17 2
    31   16   18 am
    32   18   19 1
    33   18   46 1
    34   19   24 ar
    35   19   20 ar
    36   20   21 ar
    37   20   47 1
    38   21   22 ar
    39   21   48 1
    40   22   23 ar
    41   22   25 1
    42   23   24 ar
    43   23   49 1
    44   24   50 1
    45   25   30 ar
    46   25   26 ar
    47   26   27 ar
    48   26   51 1
    49   27   28 ar
    50   27   52 1
    51   28   29 ar
    52   28   53 1
    53   29   30 ar
    54   29   54 1
    55   30   31 1
    56   31   32 2
    57   31   33 2
    58   31   34 1
    59   34   55 1
    60   34   56 1
@<TRIPOS>MOLECULE
ZINC02003646
   53    56     0     0     0
SMALL
USER_CHARGES

@<TRIPOS>ATOM
      1 C1          1.2474    1.3576    1.1081 C.ar      1 <0>        -0.0578
      2 C2          0.5264    2.1037    0.1929 C.ar      1 <0>        -0.1354
      3 C3         -0.0411    1.4933   -0.9108 C.ar      1 <0>        -0.0160
      4 C4          0.1097    0.1351   -1.1053 C.ar      1 <0>        -0.6646
      5 C5          0.8352   -0.6212   -0.1870 C.ar      1 <0>         0.0545
      6 C6          1.4046   -0.0009    0.9238 C.ar      1 <0>        -0.1261
      7 C7          1.0003   -2.0814   -0.3903 C.ar      1 <0>        -0.1289
      8 C8          2.2659   -2.6140   -0.6308 C.ar      1 <0>        -0.0687
      9 C9          2.4170   -3.9712   -0.8195 C.ar      1 <0>        -0.1515
     10 C10         1.3086   -4.8084   -0.7701 C.ar      1 <0>         0.1581
     11 C11         0.0457   -4.2795   -0.5309 C.ar      1 <0>        -0.1195
     12 C12        -0.1092   -2.9236   -0.3354 C.ar      1 <0>        -0.0284
     13 N1          1.4641   -6.1841   -0.9617 N.am      1 <0>        -0.6650
     14 C13         0.6690   -7.0503   -0.3030 C.2       1 <0>         0.5918
     15 O1         -0.1157   -6.6416    0.5316 O.2       1 <0>        -0.5087
     16 C14         0.7504   -8.4916   -0.5938 C.2       1 <0>        -0.2964
     17 C15         1.6500   -9.1066   -1.4143 C.2       1 <0>         0.1198
     18 O2          1.3919  -10.4170   -1.4113 O.3       1 <0>        -0.0544
     19 N2          0.2902  -10.6785   -0.5650 N.2       1 <0>        -0.2875
     20 C16        -0.1186   -9.5466   -0.0506 C.2       1 <0>         0.1802
     21 C17        -1.2458   -9.3623    0.8959 C.ar      1 <0>        -0.0283
     22 C18        -2.1513   -8.3179    0.7091 C.ar      1 <0>         0.0143
     23 C19        -3.2015   -8.1445    1.5890 C.ar      1 <0>        -0.1105
     24 C20        -3.3626   -9.0031    2.6584 C.ar      1 <0>        -0.0407
     25 C21        -2.4631  -10.0519    2.8559 C.ar      1 <0>        -0.1647
     26 C22        -1.4050  -10.2343    1.9680 C.ar      1 <0>        -0.0292
     27 C23        -2.6361  -10.9713    4.0026 C.cat     1 <0>         0.6054
     28 N3         -3.1959  -10.5334    5.1284 N.pl3     1 <0>        -0.7574
     29 N4         -2.2320  -12.2364    3.9083 N.pl3     1 <0>        -0.7586
     30 S1         -0.6144   -0.6410   -2.5117 S.o2      1 <0>         2.6976
     31 O3         -1.3745   -1.7380   -2.0238 O.2       1 <0>        -0.9568
     32 O4         -1.1891    0.3951   -3.2963 O.2       1 <0>        -0.9645
     33 N5          0.6218   -1.2828   -3.4074 N.pl3     1 <0>        -1.2454
     34 H1          1.6918    1.8401    1.9661 H         1 <0>         0.1360
     35 H2          0.4059    3.1667    0.3411 H         1 <0>         0.1379
     36 H3         -0.6035    2.0804   -1.6217 H         1 <0>         0.1482
     37 H4          1.9679   -0.5822    1.6386 H         1 <0>         0.1350
     38 H5          3.1274   -1.9638   -0.6696 H         1 <0>         0.1332
     39 H6          3.3973   -4.3842   -1.0062 H         1 <0>         0.1315
     40 H7         -0.8142   -4.9318   -0.4932 H         1 <0>         0.1372
     41 H8         -1.0899   -2.5137   -0.1445 H         1 <0>         0.1497
     42 H9          2.1443   -6.5154   -1.5687 H         1 <0>         0.4106
     43 H10         2.4357   -8.6178   -1.9711 H         1 <0>         0.2298
     44 H11        -2.0307   -7.6431   -0.1254 H         1 <0>         0.1505
     45 H12        -3.8995   -7.3339    1.4403 H         1 <0>         0.1569
     46 H13        -4.1858   -8.8626    3.3433 H         1 <0>         0.1453
     47 H14        -0.7087  -11.0469    2.1139 H         1 <0>         0.1429
     48 H15        -3.4904   -9.6117    5.1971 H         1 <0>         0.4470
     49 H16        -1.8241  -12.5554    3.0881 H         1 <0>         0.4466
     50 H17        -2.3454  -12.8390    4.6599 H         1 <0>         0.4339
     51 H18         1.5393   -1.1842   -3.1085 H         1 <0>         0.4157
     52 H19         0.4283   -1.7573   -4.2310 H         1 <0>         0.4214
     53 H20        -3.3093  -11.1361    5.8800 H         1 <0>         0.4339
@<TRIPOS>BOND
     1    1    6 ar
     2    1    2 ar
     3    1   34 1
     4    2    3 ar
     5    2   35 1
     6    3    4 ar
     7    3   36 1
     8    4    5 ar
     9    4   30 1
    10    5    6 ar
    11    5    7 1
    12    6   37 1
    13    7   12 ar
    14    7    8 ar
    15    8    9 ar
    16    8   38 1
    17    9   10 ar
    18    9   39 1
    19   10   11 ar
    20   10   13 1
    21   11   12 ar
    22   11   40 1
    23   12   41 1
    24   13   14 am
    25   13   42 1
    26   14   15 2
    27   14   16 1
    28   16   20 1
    29   16   17 2
    30   17   18 1
    31   17   43 1
    32   18   19 1
    33   19   20 2
    34   20   21 1
    35   21   26 ar
    36   21   22 ar
    37   22   23 ar
    38   22   44 1
    39   23   24 ar
    40   23   45 1
    41   24   25 ar
    42   24   46 1
    43   25   26 ar
    44   25   27 1
    45   26   47 1
    46   27   28 2
    47   27   29 1
    48   28   48 1
    49   28   53 1
    50   29   49 1
    51   29   50 1
    52   30   31 2
    53   30   32 2
    54   30   33 1
    55   33   51 1
    56   33   52 1
@<TRIPOS>MOLECULE
ZINC12466741
   71    73     0     0     0
SMALL
USER_CHARGES

@<TRIPOS>ATOM
      1 C1          1.0035   -1.4906    0.2091 C.3       1 <0>        -0.1485
      2 C2          0.2591   -2.4162    1.1735 C.3       1 <0>        -0.0921
      3 H1          0.3359   -3.4449    0.8215 H         1 <0>         0.0675
      4 C3         -1.2144   -2.0077    1.2370 C.3       1 <0>        -0.1302
      5 C4         -1.3168   -0.5508    1.6991 C.3       1 <0>         0.1067
      6 N1         -0.5952   -0.4062    2.9708 N.am      1 <0>        -0.5958
      7 C5          0.8024   -0.8532    3.0447 C.3       1 <0>         0.0787
      8 H2          1.4215   -0.2245    2.4047 H         1 <0>         0.0616
      9 C6          0.8809   -2.3065    2.5676 C.3       1 <0>        -0.1124
     10 C7          1.2884   -0.7587    4.4681 C.2       1 <0>         0.5050
     11 O1          0.6603   -1.2970    5.3637 O.co2     1 <0>        -0.6489
     12 O2          2.3098   -0.1440    4.7240 O.co2     1 <0>        -0.7076
     13 C8         -1.2037    0.1268    4.0488 C.2       1 <0>         0.4662
     14 O3         -0.6268    0.1621    5.1151 O.2       1 <0>        -0.4243
     15 C9         -2.6008    0.6790    3.9294 C.3       1 <0>         0.1422
     16 H3         -3.2083    0.0031    3.3275 H         1 <0>         0.0995
     17 C10        -2.5504    2.0533    3.2589 C.3       1 <0>        -0.1153
     18 C11        -3.9752    2.5464    2.9989 C.3       1 <0>        -0.1408
     19 C12        -3.9249    3.9208    2.3284 C.3       1 <0>         0.0803
     20 N2         -5.2891    4.3929    2.0794 N.pl3     1 <0>        -0.6538
     21 C13        -5.4850    5.5499    1.5118 C.cat     1 <0>         0.7366
     22 N3         -4.4112    6.3270    1.1469 N.pl3     1 <0>        -0.8111
     23 N4         -6.7653    5.9929    1.2781 N.pl3     1 <0>        -0.8178
     24 N5         -3.1906    0.8081    5.2641 N.pl3     1 <0>        -1.0932
     25 S1         -4.1320   -0.4099    5.8747 S.o2      1 <0>         2.6869
     26 O4         -3.4148   -1.6193    5.6695 O.2       1 <0>        -0.9261
     27 O5         -4.5590    0.0135    7.1622 O.2       1 <0>        -0.9619
     28 C14        -5.5769   -0.5047    4.8708 C.ar      1 <0>        -0.7430
     29 C15        -5.8179   -1.6336    4.1133 C.ar      1 <0>         0.0216
     30 C16        -6.9521   -1.7063    3.3259 C.ar      1 <0>        -0.1840
     31 C17        -7.8436   -0.6511    3.2935 C.ar      1 <0>        -0.0242
     32 C18        -7.6089    0.4852    4.0490 C.ar      1 <0>        -0.1802
     33 C19        -6.4767    0.5549    4.8462 C.ar      1 <0>         0.3094
     34 N6         -6.2211    1.6841    5.6319 N.pl3     1 <0>        -0.7526
     35 C20        -6.9952    2.9089    5.3884 C.3       1 <0>         0.1294
     36 C21        -8.4677    2.5089    5.2279 C.3       1 <0>        -0.1180
     37 H4         -8.7970    1.9652    6.1134 H         1 <0>         0.0881
     38 C22        -8.5980    1.6190    3.9862 C.3       1 <0>        -0.0606
     39 C23        -9.3235    3.7646    5.0497 C.3       1 <0>        -0.1435
     40 H5          2.0529   -1.7816    0.1634 H         1 <0>         0.0548
     41 H6          0.5611   -1.5689   -0.7840 H         1 <0>         0.0475
     42 H7          0.9268   -0.4618    0.5609 H         1 <0>         0.0583
     43 H8         -1.6627   -2.1082    0.2486 H         1 <0>         0.0662
     44 H9         -1.7402   -2.6510    1.9426 H         1 <0>         0.0688
     45 H10        -0.8706    0.1026    0.9494 H         1 <0>         0.0624
     46 H11        -2.3644   -0.2853    1.8412 H         1 <0>         0.0664
     47 H12         0.3354   -2.9470    3.2606 H         1 <0>         0.0708
     48 H13         1.9241   -2.6197    2.5263 H         1 <0>         0.0656
     49 H14        -2.0358    2.7577    3.9124 H         1 <0>         0.0899
     50 H15        -2.0141    1.9768    2.3131 H         1 <0>         0.0927
     51 H16        -4.4899    1.8420    2.3454 H         1 <0>         0.0863
     52 H17        -4.5115    2.6230    3.9447 H         1 <0>         0.0896
     53 H18        -3.4102    4.6252    2.9819 H         1 <0>         0.1047
     54 H19        -3.3885    3.8442    1.3826 H         1 <0>         0.1048
     55 H20        -3.5079    6.0144    1.3118 H         1 <0>         0.4392
     56 H21        -4.5570    7.1880    0.7245 H         1 <0>         0.4372
     57 H22        -7.5229    5.4446    1.5356 H         1 <0>         0.4365
     58 H23        -6.9110    6.8539    0.8557 H         1 <0>         0.4377
     59 H24        -3.0298    1.6069    5.7903 H         1 <0>         0.4186
     60 H25        -5.1213   -2.4586    4.1355 H         1 <0>         0.1454
     61 H26        -7.1415   -2.5898    2.7343 H         1 <0>         0.1317
     62 H27        -8.7274   -0.7129    2.6758 H         1 <0>         0.1276
     63 H28        -5.5442    1.6586    6.3262 H         1 <0>         0.4113
     64 H29        -6.8873    3.5881    6.2341 H         1 <0>         0.0883
     65 H30        -6.6429    3.3933    4.4777 H         1 <0>         0.0475
     66 H31        -8.4162    2.2063    3.0861 H         1 <0>         0.0656
     67 H32        -9.6091    1.2135    3.9498 H         1 <0>         0.0790
     68 H33        -8.9958    4.3046    4.1614 H         1 <0>         0.0489
     69 H34       -10.3691    3.4785    4.9359 H         1 <0>         0.0645
     70 H35        -9.2153    4.4052    5.9249 H         1 <0>         0.0619
     71 H36        -6.0467    3.8446    2.3369 H         1 <0>         0.4364
@<TRIPOS>BOND
     1    1    2 1
     2    1   40 1
     3    1   41 1
     4    1   42 1
     5    2    3 1
     6    2    9 1
     7    2    4 1
     8    4    5 1
     9    4   43 1
    10    4   44 1
    11    5    6 1
    12    5   45 1
    13    5   46 1
    14    6    7 1
    15    6   13 am
    16    7    8 1
    17    7    9 1
    18    7   10 1
    19    9   47 1
    20    9   48 1
    21   10   11 2
    22   10   12 1
    23   13   14 2
    24   13   15 1
    25   15   16 1
    26   15   17 1
    27   15   24 1
    28   17   18 1
    29   17   49 1
    30   17   50 1
    31   18   19 1
    32   18   51 1
    33   18   52 1
    34   19   20 1
    35   19   53 1
    36   19   54 1
    37   20   21 2
    38   20   71 1
    39   21   22 1
    40   21   23 1
    41   22   55 1
    42   22   56 1
    43   23   57 1
    44   23   58 1
    45   24   25 1
    46   24   59 1
    47   25   26 2
    48   25   27 2
    49   25   28 1
    50   28   33 ar
    51   28   29 ar
    52   29   30 ar
    53   29   60 1
    54   30   31 ar
    55   30   61 1
    56   31   32 ar
    57   31   62 1
    58   32   38 1
    59   32   33 ar
    60   33   34 1
    61   34   35 1
    62   34   63 1
    63   35   36 1
    64   35   64 1
    65   35   65 1
    66   36   37 1
    67   36   38 1
    68   36   39 1
    69   38   66 1
    70   38   67 1
    71   39   68 1
    72   39   69 1
    73   39   70 1
@<TRIPOS>MOLECULE
ZINC12466745
   71    73     0     0     0
SMALL
USER_CHARGES

@<TRIPOS>ATOM
      1 C1          0.9384   -1.7702    0.1612 C.3       1 <0>        -0.1485
      2 C2          0.2088   -2.6476    1.1804 C.3       1 <0>        -0.0921
      3 H1          0.2891   -3.6931    0.8829 H         1 <0>         0.0675
      4 C3         -1.2667   -2.2452    1.2360 C.3       1 <0>        -0.1301
      5 C4         -1.3743   -0.7663    1.6210 C.3       1 <0>         0.1065
      6 N1         -0.6421   -0.5500    2.8763 N.am      1 <0>        -0.5960
      7 C5          0.7590   -0.9841    2.9607 C.3       1 <0>         0.0787
      8 H2          1.3681   -0.3866    2.2824 H         1 <0>         0.0616
      9 C6          0.8425   -2.4602    2.5608 C.3       1 <0>        -0.1124
     10 C7          1.2573   -0.8111    4.3724 C.2       1 <0>         0.5048
     11 O1          0.6397   -1.3031    5.3014 O.co2     1 <0>        -0.6486
     12 O2          2.2779   -0.1792    4.5855 O.co2     1 <0>        -0.7074
     13 C8         -1.2442    0.0359    3.9302 C.2       1 <0>         0.4661
     14 O3         -0.6566    0.1345    4.9865 O.2       1 <0>        -0.4232
     15 C9         -2.6475    0.5686    3.7960 C.3       1 <0>         0.1411
     16 H3         -3.2577   -0.1491    3.2476 H         1 <0>         0.0998
     17 C10        -2.6184    1.8974    3.0382 C.3       1 <0>        -0.1165
     18 C11        -4.0509    2.3657    2.7745 C.3       1 <0>        -0.1391
     19 C12        -4.0217    3.6945    2.0167 C.3       1 <0>         0.0803
     20 N2         -5.3934    4.1429    1.7643 N.pl3     1 <0>        -0.6535
     21 C13        -5.6071    5.2601    1.1277 C.cat     1 <0>         0.7363
     22 N3         -4.5453    6.0177    0.6933 N.pl3     1 <0>        -0.8113
     23 N4         -6.8943    5.6809    0.8908 N.pl3     1 <0>        -0.8177
     24 N5         -3.2196    0.7786    5.1282 N.pl3     1 <0>        -1.0976
     25 S1         -4.1336   -0.4087    5.8334 S.o2      1 <0>         2.6829
     26 O4         -3.3908   -1.6147    5.7193 O.2       1 <0>        -0.9253
     27 O5         -4.5677    0.1030    7.0860 O.2       1 <0>        -0.9565
     28 C14        -5.5777   -0.6111    4.8443 C.ar      1 <0>        -0.7427
     29 C15        -5.7737   -1.7830    4.1411 C.ar      1 <0>         0.0209
     30 C16        -6.9076   -1.9403    3.3657 C.ar      1 <0>        -0.1840
     31 C17        -7.8455   -0.9282    3.2939 C.ar      1 <0>        -0.0246
     32 C18        -7.6570    0.2501    3.9962 C.ar      1 <0>        -0.1782
     33 C19        -6.5220    0.4071    4.7769 C.ar      1 <0>         0.3085
     34 N6         -6.3034    1.5878    5.4951 N.pl3     1 <0>        -0.7475
     35 C20        -7.4163    2.5315    5.6665 C.3       1 <0>         0.1211
     36 C21        -8.1196    2.6783    4.3108 C.3       1 <0>        -0.1012
     37 H4         -7.3993    3.0004    3.5587 H         1 <0>         0.0580
     38 C22        -8.7011    1.3310    3.8995 C.3       1 <0>        -0.0681
     39 C23        -9.2400    3.7140    4.4240 C.3       1 <0>        -0.1517
     40 H5          1.9892   -2.0570    0.1211 H         1 <0>         0.0549
     41 H6          0.4875   -1.9039   -0.8221 H         1 <0>         0.0475
     42 H7          0.8583   -0.7246    0.4585 H         1 <0>         0.0583
     43 H8         -1.7233   -2.4008    0.2585 H         1 <0>         0.0662
     44 H9         -1.7819   -2.8531    1.9797 H         1 <0>         0.0687
     45 H10        -0.9391   -0.1511    0.8334 H         1 <0>         0.0625
     46 H11        -2.4223   -0.4999    1.7586 H         1 <0>         0.0664
     47 H12         0.3075   -3.0662    3.2920 H         1 <0>         0.0708
     48 H13         1.8873   -2.7689    2.5264 H         1 <0>         0.0657
     49 H14        -2.0959    2.6448    3.6354 H         1 <0>         0.0904
     50 H15        -2.0995    1.7631    2.0891 H         1 <0>         0.0936
     51 H16        -4.5733    1.6183    2.1774 H         1 <0>         0.0871
     52 H17        -4.5697    2.5000    3.7236 H         1 <0>         0.0863
     53 H18        -3.4993    4.4419    2.6139 H         1 <0>         0.1048
     54 H19        -3.5028    3.5603    1.0676 H         1 <0>         0.1052
     55 H20        -3.6371    5.7208    0.8605 H         1 <0>         0.4391
     56 H21        -4.7043    6.8491    0.2196 H         1 <0>         0.4371
     57 H22        -7.6434    5.1463    1.1973 H         1 <0>         0.4365
     58 H23        -7.0533    6.5123    0.4171 H         1 <0>         0.4377
     59 H24        -3.0630    1.6131    5.5973 H         1 <0>         0.4178
     60 H25        -5.0422   -2.5756    4.1964 H         1 <0>         0.1454
     61 H26        -7.0604   -2.8563    2.8144 H         1 <0>         0.1317
     62 H27        -8.7295   -1.0566    2.6869 H         1 <0>         0.1278
     63 H28        -5.4313    1.7800    5.8740 H         1 <0>         0.4020
     64 H29        -8.1175    2.1450    6.4061 H         1 <0>         0.0719
     65 H30        -7.0333    3.4992    5.9903 H         1 <0>         0.0866
     66 H31        -9.0703    1.3847    2.8753 H         1 <0>         0.0774
     67 H32        -9.5300    1.0919    4.5658 H         1 <0>         0.0778
     68 H33        -8.8182    4.6747    4.7194 H         1 <0>         0.0593
     69 H34        -9.7384    3.8170    3.4601 H         1 <0>         0.0604
     70 H35        -9.9616    3.3882    5.1732 H         1 <0>         0.0668
     71 H36        -6.1425    3.6084    2.0708 H         1 <0>         0.4359
@<TRIPOS>BOND
     1    1    2 1
     2    1   40 1
     3    1   41 1
     4    1   42 1
     5    2    3 1
     6    2    9 1
     7    2    4 1
     8    4    5 1
     9    4   43 1
    10    4   44 1
    11    5    6 1
    12    5   45 1
    13    5   46 1
    14    6    7 1
    15    6   13 am
    16    7    8 1
    17    7    9 1
    18    7   10 1
    19    9   47 1
    20    9   48 1
    21   10   11 2
    22   10   12 1
    23   13   14 2
    24   13   15 1
    25   15   16 1
    26   15   17 1
    27   15   24 1
    28   17   18 1
    29   17   49 1
    30   17   50 1
    31   18   19 1
    32   18   51 1
    33   18   52 1
    34   19   20 1
    35   19   53 1
    36   19   54 1
    37   20   21 2
    38   20   71 1
    39   21   22 1
    40   21   23 1
    41   22   55 1
    42   22   56 1
    43   23   57 1
    44   23   58 1
    45   24   25 1
    46   24   59 1
    47   25   26 2
    48   25   27 2
    49   25   28 1
    50   28   33 ar
    51   28   29 ar
    52   29   30 ar
    53   29   60 1
    54   30   31 ar
    55   30   61 1
    56   31   32 ar
    57   31   62 1
    58   32   38 1
    59   32   33 ar
    60   33   34 1
    61   34   35 1
    62   34   63 1
    63   35   36 1
    64   35   64 1
    65   35   65 1
    66   36   37 1
    67   36   38 1
    68   36   39 1
    69   38   66 1
    70   38   67 1
    71   39   68 1
    72   39   69 1
    73   39   70 1
@<TRIPOS>MOLECULE
ZINC13761967
   71    73     0     0     0
SMALL
USER_CHARGES

@<TRIPOS>ATOM
      1 C1         -0.6527    1.4420    1.3178 C.3       1 <0>        -0.1433
      2 C2         -0.3777   -0.0559    1.1703 C.3       1 <0>        -0.0951
      3 H1          0.4655   -0.2056    0.4960 H         1 <0>         0.0674
      4 C3         -1.6171   -0.7478    0.5982 C.3       1 <0>        -0.1239
      5 C4         -1.3265   -2.2413    0.4195 C.3       1 <0>         0.0974
      6 N1         -0.8669   -2.7904    1.7024 N.am      1 <0>        -0.5929
      7 C5          0.2623   -2.1432    2.3841 C.3       1 <0>         0.0747
      8 H2          1.1679   -2.2688    1.7906 H         1 <0>         0.0552
      9 C6         -0.0465   -0.6509    2.5408 C.3       1 <0>        -0.1057
     10 C7          0.4575   -2.7669    3.7419 C.2       1 <0>         0.5238
     11 O1          1.4944   -3.3545    3.9995 O.co2     1 <0>        -0.6926
     12 O2         -0.4213   -2.6841    4.5829 O.co2     1 <0>        -0.6840
     13 C8         -1.4701   -3.8672    2.2440 C.2       1 <0>         0.4706
     14 O3         -1.0318   -4.3597    3.2619 O.2       1 <0>        -0.4297
     15 C9         -2.6890   -4.4592    1.5846 C.3       1 <0>         0.1392
     16 H3         -2.4675   -4.6764    0.5397 H         1 <0>         0.1107
     17 C10        -3.8467   -3.4620    1.6638 C.3       1 <0>        -0.1211
     18 C11        -5.0619   -4.0319    0.9295 C.3       1 <0>        -0.1390
     19 C12        -6.2196   -3.0347    1.0087 C.3       1 <0>         0.0806
     20 N2         -7.3832   -3.5805    0.3056 N.pl3     1 <0>        -0.6526
     21 C13        -8.4898   -2.8942    0.2464 C.cat     1 <0>         0.7363
     22 N3         -8.5650   -1.6582    0.8437 N.pl3     1 <0>        -0.8130
     23 N4         -9.5818   -3.4064   -0.4134 N.pl3     1 <0>        -0.8178
     24 N5         -3.0633   -5.6975    2.2722 N.pl3     1 <0>        -1.1006
     25 S1         -2.5703   -7.1597    1.6712 S.o2      1 <0>         2.6958
     26 O4         -3.0872   -8.1534    2.5457 O.2       1 <0>        -0.9622
     27 O5         -2.8584   -7.1450    0.2798 O.2       1 <0>        -0.9702
     28 C14        -0.8157   -7.2200    1.8216 C.ar      1 <0>        -0.7542
     29 C15        -0.0265   -7.2415    0.6890 C.ar      1 <0>         0.0023
     30 C16         1.3502   -7.2891    0.8087 C.ar      1 <0>        -0.1933
     31 C17         1.9377   -7.3174    2.0590 C.ar      1 <0>        -0.0200
     32 C18         1.1536   -7.2974    3.2000 C.ar      1 <0>        -0.1449
     33 C19        -0.2266   -7.2401    3.0807 C.ar      1 <0>         0.3492
     34 N6         -1.0437   -7.2036    4.2159 N.pl3     1 <0>        -0.7229
     35 C20        -0.4561   -7.5212    5.5246 C.3       1 <0>         0.1293
     36 C21         0.8865   -6.7857    5.6268 C.3       1 <0>        -0.1139
     37 H4          0.7299   -5.7174    5.4776 H         1 <0>         0.1089
     38 C22         1.8261   -7.3349    4.5469 C.3       1 <0>        -0.0616
     39 C23         1.4987   -7.0260    7.0082 C.3       1 <0>        -0.1388
     40 H5          0.2301    1.9350    1.7248 H         1 <0>         0.0551
     41 H6         -0.8881    1.8660    0.3417 H         1 <0>         0.0491
     42 H7         -1.4959    1.5919    1.9921 H         1 <0>         0.0513
     43 H8         -2.4545   -0.6197    1.2842 H         1 <0>         0.0626
     44 H9         -1.8665   -0.3076   -0.3673 H         1 <0>         0.0662
     45 H10        -2.2352   -2.7554    0.1064 H         1 <0>         0.0745
     46 H11        -0.5504   -2.3749   -0.3341 H         1 <0>         0.0641
     47 H12         0.8222   -0.1417    2.9582 H         1 <0>         0.0629
     48 H13        -0.8988   -0.5237    3.2083 H         1 <0>         0.0685
     49 H14        -4.1032   -3.2853    2.7084 H         1 <0>         0.0895
     50 H15        -3.5491   -2.5221    1.1988 H         1 <0>         0.0971
     51 H16        -4.8054   -4.2086   -0.1150 H         1 <0>         0.0906
     52 H17        -5.3595   -4.9718    1.3945 H         1 <0>         0.0877
     53 H18        -6.4762   -2.8581    2.0533 H         1 <0>         0.1034
     54 H19        -5.9220   -2.0949    0.5438 H         1 <0>         0.1036
     55 H20        -7.7945   -1.2969    1.3092 H         1 <0>         0.4386
     56 H21        -9.3884   -1.1475    0.7996 H         1 <0>         0.4366
     57 H22        -9.5287   -4.2784   -0.8349 H         1 <0>         0.4378
     58 H23       -10.4053   -2.8957   -0.4575 H         1 <0>         0.4370
     59 H24        -3.5999   -5.6609    3.0794 H         1 <0>         0.4181
     60 H25        -0.4838   -7.2217   -0.2893 H         1 <0>         0.1311
     61 H26         1.9677   -7.3045   -0.0771 H         1 <0>         0.1225
     62 H27         3.0134   -7.3556    2.1466 H         1 <0>         0.1242
     63 H28        -1.9826   -6.9720    4.1403 H         1 <0>         0.3930
     64 H29        -1.1222   -7.1858    6.3195 H         1 <0>         0.0794
     65 H30        -0.2952   -8.5962    5.6058 H         1 <0>         0.0595
     66 H31         2.1041   -8.3623    4.7823 H         1 <0>         0.0658
     67 H32         2.7252   -6.7193    4.5180 H         1 <0>         0.0785
     68 H33         1.6587   -8.0943    7.1539 H         1 <0>         0.0493
     69 H34         2.4523   -6.5028    7.0790 H         1 <0>         0.0597
     70 H35         0.8213   -6.6521    7.7759 H         1 <0>         0.0549
     71 H36        -7.3302   -4.4525   -0.1158 H         1 <0>         0.4401
@<TRIPOS>BOND
     1    1    2 1
     2    1   40 1
     3    1   41 1
     4    1   42 1
     5    2    3 1
     6    2    9 1
     7    2    4 1
     8    4    5 1
     9    4   43 1
    10    4   44 1
    11    5    6 1
    12    5   45 1
    13    5   46 1
    14    6    7 1
    15    6   13 am
    16    7    8 1
    17    7    9 1
    18    7   10 1
    19    9   47 1
    20    9   48 1
    21   10   11 2
    22   10   12 1
    23   13   14 2
    24   13   15 1
    25   15   16 1
    26   15   17 1
    27   15   24 1
    28   17   18 1
    29   17   49 1
    30   17   50 1
    31   18   19 1
    32   18   51 1
    33   18   52 1
    34   19   20 1
    35   19   53 1
    36   19   54 1
    37   20   21 2
    38   20   71 1
    39   21   22 1
    40   21   23 1
    41   22   55 1
    42   22   56 1
    43   23   57 1
    44   23   58 1
    45   24   25 1
    46   24   59 1
    47   25   26 2
    48   25   27 2
    49   25   28 1
    50   28   33 ar
    51   28   29 ar
    52   29   30 ar
    53   29   60 1
    54   30   31 ar
    55   30   61 1
    56   31   32 ar
    57   31   62 1
    58   32   38 1
    59   32   33 ar
    60   33   34 1
    61   34   35 1
    62   34   63 1
    63   35   36 1
    64   35   64 1
    65   35   65 1
    66   36   37 1
    67   36   38 1
    68   36   39 1
    69   38   66 1
    70   38   67 1
    71   39   68 1
    72   39   69 1
    73   39   70 1
@<TRIPOS>MOLECULE
ZINC13761969
   71    73     0     0     0
SMALL
USER_CHARGES

@<TRIPOS>ATOM
      1 C1         -0.8428    1.4764    1.5620 C.3       1 <0>        -0.1432
      2 C2         -0.5283   -0.0075    1.3617 C.3       1 <0>        -0.0951
      3 H1          0.2879   -0.1125    0.6469 H         1 <0>         0.0673
      4 C3         -1.7701   -0.7241    0.8264 C.3       1 <0>        -0.1239
      5 C4         -1.4415   -2.2023    0.5944 C.3       1 <0>         0.0977
      6 N1         -0.9077   -2.7692    1.8403 N.am      1 <0>        -0.5936
      7 C5          0.2305   -2.1036    2.4887 C.3       1 <0>         0.0749
      8 H2          1.1119   -2.1845    1.8525 H         1 <0>         0.0551
      9 C6         -0.1172   -0.6266    2.6995 C.3       1 <0>        -0.1057
     10 C7          0.5061   -2.7556    3.8191 C.2       1 <0>         0.5243
     11 O1          1.5711   -3.3162    4.0142 O.co2     1 <0>        -0.6941
     12 O2         -0.3359   -2.7225    4.7003 O.co2     1 <0>        -0.6839
     13 C8         -1.4520   -3.8785    2.3785 C.2       1 <0>         0.4705
     14 O3         -0.9535   -4.3823    3.3627 O.2       1 <0>        -0.4276
     15 C9         -2.6799   -4.4929    1.7574 C.3       1 <0>         0.1400
     16 H3         -2.4989   -4.6746    0.6980 H         1 <0>         0.1099
     17 C10        -3.8641   -3.5373    1.9159 C.3       1 <0>        -0.1208
     18 C11        -5.0923   -4.1273    1.2199 C.3       1 <0>        -0.1389
     19 C12        -6.2766   -3.1716    1.3785 C.3       1 <0>         0.0806
     20 N2         -7.4526   -3.7366    0.7120 N.pl3     1 <0>        -0.6526
     21 C13        -8.5821   -3.0862    0.7212 C.cat     1 <0>         0.7363
     22 N3         -8.6699   -1.8700    1.3562 N.pl3     1 <0>        -0.8130
     23 N4         -9.6857   -3.6163    0.0958 N.pl3     1 <0>        -0.8178
     24 N5         -2.9828   -5.7610    2.4256 N.pl3     1 <0>        -1.0959
     25 S1         -2.4751   -7.1897    1.7598 S.o2      1 <0>         2.6997
     26 O4         -2.9207   -8.2231    2.6274 O.2       1 <0>        -0.9688
     27 O5         -2.8282   -7.1448    0.3841 O.2       1 <0>        -0.9703
     28 C14        -0.7144   -7.1995    1.8276 C.ar      1 <0>        -0.7562
     29 C15         0.0212   -7.1899    0.6593 C.ar      1 <0>         0.0018
     30 C16         1.4028   -7.1973    0.7143 C.ar      1 <0>        -0.1937
     31 C17         2.0488   -7.2130    1.9355 C.ar      1 <0>        -0.0216
     32 C18         1.3189   -7.2222    3.1120 C.ar      1 <0>        -0.1431
     33 C19        -0.0665   -7.2111    3.0577 C.ar      1 <0>         0.3500
     34 N6         -0.8303   -7.2232    4.2299 N.pl3     1 <0>        -0.7297
     35 C20        -0.1699   -6.9377    5.5110 C.3       1 <0>         0.1250
     36 C21         1.1458   -7.7261    5.5462 C.3       1 <0>        -0.1053
     37 H4          0.9402   -8.7865    5.3993 H         1 <0>         0.0687
     38 C22         2.0546   -7.2345    4.4259 C.3       1 <0>        -0.0705
     39 C23         1.8312   -7.5195    6.8985 C.3       1 <0>        -0.1435
     40 H5          0.0417    1.9871    1.9427 H         1 <0>         0.0551
     41 H6         -1.1351    1.9177    0.6091 H         1 <0>         0.0491
     42 H7         -1.6589    1.5816    2.2767 H         1 <0>         0.0513
     43 H8         -2.5793   -0.6408    1.5520 H         1 <0>         0.0625
     44 H9         -2.0764   -0.2674   -0.1147 H         1 <0>         0.0660
     45 H10        -2.3469   -2.7373    0.3080 H         1 <0>         0.0743
     46 H11        -0.6965   -2.2912   -0.1962 H         1 <0>         0.0638
     47 H12         0.7532   -0.1006    3.0917 H         1 <0>         0.0629
     48 H13        -0.9421   -0.5443    3.4073 H         1 <0>         0.0685
     49 H14        -4.0790   -3.3976    2.9753 H         1 <0>         0.0893
     50 H15        -3.6180   -2.5758    1.4652 H         1 <0>         0.0968
     51 H16        -4.8775   -4.2670    0.1605 H         1 <0>         0.0904
     52 H17        -5.3384   -5.0887    1.6706 H         1 <0>         0.0875
     53 H18        -6.4914   -3.0319    2.4379 H         1 <0>         0.1034
     54 H19        -6.0305   -2.2102    0.9278 H         1 <0>         0.1036
     55 H20        -7.8912   -1.4959    1.7975 H         1 <0>         0.4386
     56 H21        -9.5105   -1.3859    1.3630 H         1 <0>         0.4366
     57 H22        -9.6238   -4.4744   -0.3523 H         1 <0>         0.4378
     58 H23       -10.5263   -3.1323    0.1026 H         1 <0>         0.4369
     59 H24        -3.4807   -5.7637    3.2580 H         1 <0>         0.4187
     60 H25        -0.4818   -7.1770   -0.2963 H         1 <0>         0.1307
     61 H26         1.9783   -7.1913   -0.1996 H         1 <0>         0.1222
     62 H27         3.1282   -7.2184    1.9726 H         1 <0>         0.1238
     63 H28        -1.7803   -7.4165    4.1974 H         1 <0>         0.3966
     64 H29         0.0370   -5.8705    5.5899 H         1 <0>         0.0910
     65 H30        -0.8108   -7.2521    6.3348 H         1 <0>         0.0738
     66 H31         2.9261   -7.8842    4.3448 H         1 <0>         0.0698
     67 H32         2.3841   -6.2231    4.6639 H         1 <0>         0.0910
     68 H33         1.1762   -7.8717    7.6954 H         1 <0>         0.0542
     69 H34         2.7656   -8.0802    6.9217 H         1 <0>         0.0562
     70 H35         2.0400   -6.4593    7.0417 H         1 <0>         0.0643
     71 H36        -7.3906   -4.5947    0.2640 H         1 <0>         0.4401
@<TRIPOS>BOND
     1    1    2 1
     2    1   40 1
     3    1   41 1
     4    1   42 1
     5    2    3 1
     6    2    9 1
     7    2    4 1
     8    4    5 1
     9    4   43 1
    10    4   44 1
    11    5    6 1
    12    5   45 1
    13    5   46 1
    14    6    7 1
    15    6   13 am
    16    7    8 1
    17    7    9 1
    18    7   10 1
    19    9   47 1
    20    9   48 1
    21   10   11 2
    22   10   12 1
    23   13   14 2
    24   13   15 1
    25   15   16 1
    26   15   17 1
    27   15   24 1
    28   17   18 1
    29   17   49 1
    30   17   50 1
    31   18   19 1
    32   18   51 1
    33   18   52 1
    34   19   20 1
    35   19   53 1
    36   19   54 1
    37   20   21 2
    38   20   71 1
    39   21   22 1
    40   21   23 1
    41   22   55 1
    42   22   56 1
    43   23   57 1
    44   23   58 1
    45   24   25 1
    46   24   59 1
    47   25   26 2
    48   25   27 2
    49   25   28 1
    50   28   33 ar
    51   28   29 ar
    52   29   30 ar
    53   29   60 1
    54   30   31 ar
    55   30   61 1
    56   31   32 ar
    57   31   62 1
    58   32   38 1
    59   32   33 ar
    60   33   34 1
    61   34   35 1
    62   34   63 1
    63   35   36 1
    64   35   64 1
    65   35   65 1
    66   36   37 1
    67   36   38 1
    68   36   39 1
    69   38   66 1
    70   38   67 1
    71   39   68 1
    72   39   69 1
    73   39   70 1
@<TRIPOS>MOLECULE
ZINC03791107
   62    65     0     0     0
SMALL
USER_CHARGES
3-(7-amidino-2-naphthyl)-2-[4-(1-ethanimidoylpyrrolidin-3-yl)oxyphenyl]-propanoic acid
@<TRIPOS>ATOM
      1 C1         -5.0940    5.9928   -0.1468 C.3       1 <0>        -0.1541
      2 C2         -5.1629    5.2111    1.1398 C.cat     1 <0>         0.5423
      3 N1         -4.2222    4.2525    1.4101 N.pl3     1 <0>        -0.5640
      4 C3         -3.0946    3.8842    0.5348 C.3       1 <0>         0.0859
      5 C4         -2.7351    2.4275    0.9390 C.3       1 <0>        -0.1558
      6 C5         -2.9628    2.4709    2.4731 C.3       1 <0>         0.0765
      7 H1         -2.0884    2.8773    2.9814 H         1 <0>         0.1079
      8 C6         -4.1706    3.4199    2.6209 C.3       1 <0>         0.0683
      9 O1         -3.2776    1.1702    2.9744 O.3       1 <0>        -0.3020
     10 C7         -2.2551    0.4498    3.5061 C.ar      1 <0>         0.0983
     11 C8         -2.5091   -0.7673    4.1213 C.ar      1 <0>        -0.1421
     12 C9         -1.4673   -1.5006    4.6556 C.ar      1 <0>        -0.0419
     13 C10        -0.1739   -1.0166    4.5882 C.ar      1 <0>        -0.0630
     14 C11         0.0812    0.1988    3.9805 C.ar      1 <0>        -0.0838
     15 C12        -0.9564    0.9330    3.4393 C.ar      1 <0>        -0.2074
     16 C13         0.9599   -1.8155    5.1777 C.3       1 <0>        -0.0961
     17 H2          1.8974   -1.2793    5.0301 H         1 <0>         0.0800
     18 C14         1.0374   -3.1780    4.4861 C.3       1 <0>        -0.0572
     19 C15         2.2441   -3.9283    4.9880 C.ar      1 <0>        -0.0714
     20 C16         3.4637   -3.7873    4.3284 C.ar      1 <0>        -0.0584
     21 C17         4.5740   -4.4469    4.7588 C.ar      1 <0>        -0.1431
     22 C18         4.4920   -5.2921    5.8781 C.ar      1 <0>        -0.0103
     23 C19         5.6203   -5.9910    6.3441 C.ar      1 <0>        -0.0865
     24 C20         5.5167   -6.8018    7.4281 C.ar      1 <0>        -0.1014
     25 C21         4.2909   -6.9566    8.0981 C.ar      1 <0>        -0.1777
     26 C22         3.1632   -6.2825    7.6648 C.ar      1 <0>         0.0095
     27 C23         3.2500   -5.4399    6.5461 C.ar      1 <0>        -0.0688
     28 C24         2.1259   -4.7380    6.0754 C.ar      1 <0>         0.0060
     29 C25         4.2060   -7.8478    9.2769 C.cat     1 <0>         0.6014
     30 N2          5.3260   -8.5218    9.7133 N.pl3     1 <0>        -0.7881
     31 C26         0.7213   -2.0136    6.6524 C.2       1 <0>         0.4679
     32 O2         -0.2680   -1.5533    7.1715 O.co2     1 <0>        -0.6228
     33 H3         -4.2355    5.6588   -0.7293 H         1 <0>         0.1172
     34 H4         -6.0071    5.8309   -0.7197 H         1 <0>         0.1304
     35 H5         -4.9896    7.0542    0.0782 H         1 <0>         0.1310
     36 H6         -6.8225    6.1036    1.8878 H         1 <0>         0.4577
     37 H7         -3.3980    3.9234   -0.5114 H         1 <0>         0.1097
     38 H8         -2.2473    4.5476    0.7083 H         1 <0>         0.1077
     39 H9         -1.6954    2.1989    0.7046 H         1 <0>         0.1127
     40 H10        -3.4073    1.7128    0.4642 H         1 <0>         0.1016
     41 H11        -5.0890    2.8399    2.7113 H         1 <0>         0.1104
     42 H12        -4.0405    4.0515    3.4997 H         1 <0>         0.1079
     43 H13        -3.5198   -1.1436    4.1785 H         1 <0>         0.1272
     44 H14        -1.6640   -2.4504    5.1307 H         1 <0>         0.1287
     45 H15         1.0924    0.5744    3.9285 H         1 <0>         0.1224
     46 H16        -0.7567    1.8826    2.9651 H         1 <0>         0.1206
     47 H17         0.1361   -3.7497    4.7076 H         1 <0>         0.0711
     48 H18         1.1209   -3.0345    3.4088 H         1 <0>         0.0697
     49 H19         3.5298   -3.1419    3.4650 H         1 <0>         0.1270
     50 H20         5.5130   -4.3241    4.2395 H         1 <0>         0.1324
     51 H21         6.5692   -5.8823    5.8397 H         1 <0>         0.1407
     52 H22         6.3875   -7.3351    7.7799 H         1 <0>         0.1270
     53 H23         2.2236   -6.4040    8.1832 H         1 <0>         0.1355
     54 H24         1.1737   -4.8407    6.5746 H         1 <0>         0.1355
     55 H25         2.9162   -8.5565   10.6840 H         1 <0>         0.4393
     56 H26         6.1699   -8.4121    9.2480 H         1 <0>         0.4412
     57 H27         5.2703   -9.1058   10.4858 H         1 <0>         0.4262
     58 N3         -6.0995    5.4010    2.0429 N.pl3     1 <0>        -0.7653
     59 H28        -6.1030    4.8422    2.9042 H         1 <0>         0.4433
     60 N4          3.0255   -7.9545    9.8677 N.pl3     1 <0>        -0.7667
     61 H29         2.2203   -7.4314    9.5042 H         1 <0>         0.4604
     62 O3          1.6076   -2.7013    7.3893 O.co2     1 <0>        -0.7504
@<TRIPOS>BOND
     1    1    2 1
     2    1   33 1
     3    1   34 1
     4    1   35 1
     5    2    3 1
     6    2   58 2
     7    3    8 1
     8    3    4 1
     9    4    5 1
    10    4   37 1
    11    4   38 1
    12    5    6 1
    13    5   39 1
    14    5   40 1
    15    6    7 1
    16    6    8 1
    17    6    9 1
    18    8   41 1
    19    8   42 1
    20    9   10 1
    21   10   15 ar
    22   10   11 ar
    23   11   12 ar
    24   11   43 1
    25   12   13 ar
    26   12   44 1
    27   13   14 ar
    28   13   16 1
    29   14   15 ar
    30   14   45 1
    31   15   46 1
    32   16   17 1
    33   16   18 1
    34   16   31 1
    35   18   19 1
    36   18   47 1
    37   18   48 1
    38   19   28 ar
    39   19   20 ar
    40   20   21 ar
    41   20   49 1
    42   21   22 ar
    43   21   50 1
    44   22   27 ar
    45   22   23 ar
    46   23   24 ar
    47   23   51 1
    48   24   25 ar
    49   24   52 1
    50   25   26 ar
    51   25   29 1
    52   26   27 ar
    53   26   53 1
    54   27   28 ar
    55   28   54 1
    56   29   30 1
    57   29   60 2
    58   30   56 1
    59   30   57 1
    60   31   32 2
    61   31   62 1
    62   36   58 1
    63   55   60 1
    64   58   59 1
    65   60   61 1
@<TRIPOS>MOLECULE
ZINC03952416
   70    73     0     0     0
SMALL
USER_CHARGES
2-[(7-amidino-2-naphthyl)methyl-[4-[(1-ethanimidoyl-4-piperidyl)oxy]phenyl]-sulfamoyl]acetic acid
@<TRIPOS>ATOM
      1 C1         -4.8156   -6.9086    0.2191 C.3       1 <0>        -0.1622
      2 C2         -5.1174   -6.7189   -1.2452 C.cat     1 <0>         0.5282
      3 H1         -5.7695   -8.6029   -1.6136 H         1 <0>         0.4564
      4 N1         -4.8997   -5.5030   -1.8375 N.pl3     1 <0>        -0.5586
      5 C3         -5.2987   -5.2673   -3.2318 C.3       1 <0>         0.0883
      6 C4         -4.0865   -4.7467   -4.0104 C.3       1 <0>        -0.1362
      7 C5         -3.5209   -3.5140   -3.3015 C.3       1 <0>         0.0786
      8 C6         -3.0616   -3.8992   -1.8935 C.3       1 <0>        -0.1633
      9 C7         -4.2623   -4.4098   -1.0907 C.3       1 <0>         0.0909
     10 O1         -2.4096   -3.0066   -4.0427 O.3       1 <0>        -0.3027
     11 C8         -2.1977   -1.6639   -3.9964 C.ar      1 <0>         0.0935
     12 C9         -2.9673   -0.8692   -3.1597 C.ar      1 <0>        -0.1687
     13 C10        -2.7536    0.4943   -3.1128 C.ar      1 <0>        -0.1128
     14 C11        -1.7675    1.0698   -3.9032 C.ar      1 <0>         0.1545
     15 C12        -1.0009    0.2741   -4.7444 C.ar      1 <0>        -0.1118
     16 C13        -1.2126   -1.0900   -4.7863 C.ar      1 <0>        -0.1137
     17 N2         -1.5500    2.4514   -3.8562 N.pl3     1 <0>        -0.9430
     18 C14        -0.2348    2.9981   -4.1988 C.3       1 <0>         0.1337
     19 C15         0.6838    2.8791   -3.0100 C.ar      1 <0>        -0.0921
     20 C16         1.5121    1.7647   -2.8910 C.ar      1 <0>        -0.0595
     21 C17         2.3536    1.6264   -1.8299 C.ar      1 <0>        -0.1144
     22 C18         2.3915    2.6199   -0.8371 C.ar      1 <0>        -0.0085
     23 C19         3.2505    2.5062    0.2711 C.ar      1 <0>        -0.0845
     24 C20         3.2698    3.4791    1.2177 C.ar      1 <0>        -0.0898
     25 C21         2.4398    4.6081    1.1082 C.ar      1 <0>        -0.1553
     26 C22         1.5840    4.7493    0.0304 C.ar      1 <0>        -0.0087
     27 C23         1.5492    3.7541   -0.9582 C.ar      1 <0>        -0.0610
     28 C24         0.6965    3.8642   -2.0712 C.ar      1 <0>        -0.0869
     29 C25         2.4813    5.6543    2.1547 C.cat     1 <0>         0.5985
     30 H2          1.6692    7.4419    2.6932 H         1 <0>         0.4447
     31 N3          3.3318    5.5192    3.2305 N.pl3     1 <0>        -0.7837
     32 S1         -2.7815    3.4690   -3.4199 S.o2      1 <0>         2.6099
     33 O2         -2.4664    4.7072   -4.0418 O.2       1 <0>        -0.9316
     34 O3         -3.9695    2.7681   -3.7620 O.2       1 <0>        -0.9382
     35 C26        -2.6434    3.6220   -1.6177 C.3       1 <0>        -0.6599
     36 C27        -3.6006    4.6782   -1.1285 C.2       1 <0>         0.4872
     37 O4         -4.3038    5.2672   -1.9149 O.co2     1 <0>        -0.6126
     38 H3         -4.5078   -5.9572    0.6528 H         1 <0>         0.1214
     39 H4         -5.7081   -7.2692    0.7303 H         1 <0>         0.1311
     40 H5         -4.0124   -7.6367    0.3331 H         1 <0>         0.1308
     41 H6         -6.0983   -4.5272   -3.2630 H         1 <0>         0.1154
     42 H7         -5.6447   -6.2008   -3.6756 H         1 <0>         0.0980
     43 H8         -4.3918   -4.4770   -5.0213 H         1 <0>         0.1091
     44 H9         -3.3224   -5.5228   -4.0555 H         1 <0>         0.0887
     45 H10        -4.2931   -2.7475   -3.2346 H         1 <0>         0.0887
     46 H11        -2.3073   -4.6834   -1.9587 H         1 <0>         0.0893
     47 H12        -2.6374   -3.0261   -1.3975 H         1 <0>         0.1054
     48 H13        -4.9774   -3.5998   -0.9473 H         1 <0>         0.1085
     49 H14        -3.9267   -4.7769   -0.1209 H         1 <0>         0.1175
     50 H15        -3.7343   -1.3169   -2.5451 H         1 <0>         0.1315
     51 H16        -3.3534    1.1131   -2.4618 H         1 <0>         0.1316
     52 H17        -0.2370    0.7215   -5.3631 H         1 <0>         0.1388
     53 H18        -0.6137   -1.7095   -5.4375 H         1 <0>         0.1369
     54 H19         0.1828    2.4413   -5.0377 H         1 <0>         0.1059
     55 H20        -0.3380    4.0475   -4.4746 H         1 <0>         0.1226
     56 H21         1.4858    0.9989   -3.6521 H         1 <0>         0.1380
     57 H22         2.9894    0.7570   -1.7516 H         1 <0>         0.1417
     58 H23         3.8944    1.6447    0.3690 H         1 <0>         0.1474
     59 H24         3.9318    3.3846    2.0658 H         1 <0>         0.1345
     60 H25         0.9475    5.6182   -0.0491 H         1 <0>         0.1445
     61 H26         0.0523    4.7244   -2.1783 H         1 <0>         0.1437
     62 H27         3.9032    4.7386    3.3021 H         1 <0>         0.4413
     63 H28         3.3590    6.2046    3.9163 H         1 <0>         0.4298
     64 H29        -2.8873    2.6670   -1.1521 H         1 <0>         0.1327
     65 H30        -1.6243    3.9050   -1.3541 H         1 <0>         0.1277
     66 N4         -5.5906   -7.6794   -2.0082 N.pl3     1 <0>        -0.7681
     67 H31        -5.7801   -7.4999   -3.0012 H         1 <0>         0.4395
     68 N5          1.6770    6.6947    1.9988 N.pl3     1 <0>        -0.7567
     69 H32         1.0612    6.7493    1.1790 H         1 <0>         0.4630
     70 O5         -3.6719    4.9646    0.1810 O.co2     1 <0>        -0.7350
@<TRIPOS>BOND
     1    1    2 1
     2    1   38 1
     3    1   39 1
     4    1   40 1
     5    2    4 1
     6    2   66 2
     7    3   66 1
     8    4    9 1
     9    4    5 1
    10    5    6 1
    11    5   41 1
    12    5   42 1
    13    6    7 1
    14    6   43 1
    15    6   44 1
    16    7    8 1
    17    7   10 1
    18    7   45 1
    19    8    9 1
    20    8   46 1
    21    8   47 1
    22    9   48 1
    23    9   49 1
    24   10   11 1
    25   11   16 ar
    26   11   12 ar
    27   12   13 ar
    28   12   50 1
    29   13   14 ar
    30   13   51 1
    31   14   15 ar
    32   14   17 1
    33   15   16 ar
    34   15   52 1
    35   16   53 1
    36   17   18 1
    37   17   32 1
    38   18   19 1
    39   18   54 1
    40   18   55 1
    41   19   28 ar
    42   19   20 ar
    43   20   21 ar
    44   20   56 1
    45   21   22 ar
    46   21   57 1
    47   22   27 ar
    48   22   23 ar
    49   23   24 ar
    50   23   58 1
    51   24   25 ar
    52   24   59 1
    53   25   26 ar
    54   25   29 1
    55   26   27 ar
    56   26   60 1
    57   27   28 ar
    58   28   61 1
    59   29   31 1
    60   29   68 2
    61   30   68 1
    62   31   62 1
    63   31   63 1
    64   32   33 2
    65   32   34 2
    66   32   35 1
    67   35   36 1
    68   35   64 1
    69   35   65 1
    70   36   37 2
    71   36   70 1
    72   66   67 1
    73   68   69 1
@<TRIPOS>MOLECULE
ZINC00036634
   18    18     0     0     0
SMALL
USER_CHARGES

@<TRIPOS>ATOM
      1 C1         -0.0167    1.3793    0.0096 C.ar      1 <0>        -0.0493
      2 C2          1.1684    2.0931    0.0021 C.ar      1 <0>        -0.1131
      3 C3          2.3774    1.4284   -0.0134 C.ar      1 <0>        -0.0592
      4 C4          2.4031    0.0335   -0.0211 C.ar      1 <0>        -0.1590
      5 C5          1.2045   -0.6805   -0.0130 C.ar      1 <0>        -0.0593
      6 C6          0.0021   -0.0041    0.0020 C.ar      1 <0>        -0.1131
      7 C7          3.6962   -0.6857   -0.0382 C.cat     1 <0>         0.6008
      8 N1          3.7175   -2.0169   -0.0455 N.pl3     1 <0>        -0.7620
      9 N2          4.8384   -0.0015   -0.0463 N.pl3     1 <0>        -0.7620
     10 H1         -0.9604    1.9041    0.0260 H         1 <0>         0.1474
     11 H2          1.1472    3.1728    0.0081 H         1 <0>         0.1491
     12 H3          3.3019    1.9867   -0.0199 H         1 <0>         0.1374
     13 H4          1.2179   -1.7604   -0.0192 H         1 <0>         0.1374
     14 H5         -0.9265   -0.5556    0.0079 H         1 <0>         0.1491
     15 H6          2.8854   -2.5154   -0.0396 H         1 <0>         0.4443
     16 H7          4.8229    0.9683   -0.0410 H         1 <0>         0.4443
     17 H8          5.6860   -0.4730   -0.0576 H         1 <0>         0.4336
     18 H9          4.5652   -2.4884   -0.0567 H         1 <0>         0.4336
@<TRIPOS>BOND
     1    1    6 ar
     2    1    2 ar
     3    1   10 1
     4    2    3 ar
     5    2   11 1
     6    3    4 ar
     7    3   12 1
     8    4    5 ar
     9    4    7 1
    10    5    6 ar
    11    5   13 1
    12    6   14 1
    13    7    8 2
    14    7    9 1
    15    8   15 1
    16    8   18 1
    17    9   16 1
    18    9   17 1
@<TRIPOS>MOLECULE
ZINC00159755
   23    23     0     0     0
SMALL
USER_CHARGES
piperidine-1-carboxamidine
@<TRIPOS>ATOM
      1 C1          1.4165    4.1687    0.9705 C.3       1 <0>        -0.1293
      2 C2          2.3565    2.9657    1.0786 C.3       1 <0>        -0.1389
      3 C3          2.0675    1.9922   -0.0682 C.3       1 <0>         0.1034
      4 N1          0.6397    1.6463   -0.0463 N.pl3     1 <0>        -0.5871
      5 C4         -0.3506    2.7315   -0.0609 C.3       1 <0>         0.1021
      6 C5         -0.0343    3.6969    1.0915 C.3       1 <0>        -0.1395
      7 C6          0.2379    0.3317   -0.0185 C.cat     1 <0>         0.7343
      8 N2         -1.0954    0.0231    0.1123 N.pl3     1 <0>        -0.8102
      9 H1          1.6368    4.8747    1.7712 H         1 <0>         0.0835
     10 H2          1.5605    4.6565    0.0065 H         1 <0>         0.0753
     11 H3          2.1956    2.4627    2.0321 H         1 <0>         0.0762
     12 H4          3.3904    3.3052    1.0159 H         1 <0>         0.0976
     13 H5          2.6643    1.0891    0.0597 H         1 <0>         0.0895
     14 H6          2.3150    2.4619   -1.0202 H         1 <0>         0.1042
     15 H7         -0.2967    3.2626   -1.0113 H         1 <0>         0.1028
     16 H8         -1.3496    2.3165    0.0720 H         1 <0>         0.0900
     17 H9         -0.1728    3.1870    2.0448 H         1 <0>         0.0759
     18 H10        -0.7020    4.5568    1.0385 H         1 <0>         0.0962
     19 H11         0.9360   -1.5797   -0.1064 H         1 <0>         0.4494
     20 H12        -1.7597    0.7300    0.1069 H         1 <0>         0.4364
     21 H13        -1.3720   -0.9015    0.2099 H         1 <0>         0.4370
     22 N3          1.1840   -0.5903   -0.1220 N.pl3     1 <0>        -0.8007
     23 H14         2.1668   -0.3088   -0.2178 H         1 <0>         0.4520
@<TRIPOS>BOND
     1    1    6 1
     2    1    2 1
     3    1    9 1
     4    1   10 1
     5    2    3 1
     6    2   11 1
     7    2   12 1
     8    3    4 1
     9    3   13 1
    10    3   14 1
    11    4    5 1
    12    4    7 1
    13    5    6 1
    14    5   15 1
    15    5   16 1
    16    6   17 1
    17    6   18 1
    18    7    8 1
    19    7   22 2
    20    8   20 1
    21    8   21 1
    22   19   22 1
    23   22   23 1
@<TRIPOS>MOLECULE
ZINC03777328
   64    65     0     0     0
SMALL
USER_CHARGES
N-(1-formyl-4-guanidino-butyl)-1-(2-methylamino-3-phenyl-propanoyl)-pyrrolidine-2-carboxamide
@<TRIPOS>ATOM
      1 C1         -1.1006   11.6463   -1.5224 C.3       1 <0>        -0.0461
      2 C2         -0.9630   11.2349    0.8596 C.3       1 <0>         0.0169
      3 H1         -1.8685   11.8411    0.8348 H         1 <0>         0.1593
      4 C3         -0.1070   11.6456    2.0594 C.3       1 <0>        -0.0917
      5 C4          0.1631   13.1271    2.0002 C.ar      1 <0>        -0.1306
      6 C5          1.2821   13.5998    1.3406 C.ar      1 <0>        -0.1429
      7 C6          1.5270   14.9590    1.2817 C.ar      1 <0>        -0.1028
      8 C7          0.6589   15.8448    1.8922 C.ar      1 <0>        -0.0988
      9 C8         -0.4574   15.3717    2.5563 C.ar      1 <0>        -0.1020
     10 C9         -0.7053   14.0129    2.6102 C.ar      1 <0>        -0.1030
     11 C10        -1.3357    9.7799    0.9830 C.2       1 <0>         0.5339
     12 O1         -0.6480    8.9310    0.4564 O.2       1 <0>        -0.5146
     13 N1         -2.4332    9.4221    1.6787 N.am      1 <0>        -0.5806
     14 C11        -3.3535   10.3459    2.3665 C.3       1 <0>         0.0813
     15 C12        -4.0211    9.4904    3.4720 C.3       1 <0>        -0.1308
     16 C13        -4.1772    8.1228    2.7560 C.3       1 <0>        -0.1285
     17 C14        -2.9104    8.0459    1.8779 C.3       1 <0>         0.1215
     18 H2         -2.1435    7.4566    2.3804 H         1 <0>         0.1120
     19 C15        -3.2460    7.4222    0.5477 C.2       1 <0>         0.5198
     20 O2         -3.1031    8.0595   -0.4742 O.2       1 <0>        -0.5250
     21 N2         -3.7051    6.1561    0.4937 N.am      1 <0>        -0.7157
     22 C16        -4.0313    5.5498   -0.7994 C.3       1 <0>         0.0934
     23 H3         -3.3938    5.8829   -1.4941 H         1 <0>         0.1097
     24 C17        -3.9188    4.0277   -0.6920 C.3       1 <0>        -0.1228
     25 C18        -2.4636    3.6418   -0.4196 C.3       1 <0>        -0.1314
     26 C19        -2.3512    2.1198   -0.3120 C.3       1 <0>         0.0917
     27 N3         -0.9577    1.7502   -0.0513 N.pl3     1 <0>        -0.7015
     28 C20        -0.6115    0.4267    0.0849 C.cat     1 <0>         0.7402
     29 N4          0.6971    0.0796    0.3240 N.pl3     1 <0>        -0.8052
     30 C21        -5.4384    5.9233   -1.1887 C.2       1 <0>         0.3242
     31 O3         -6.1004    6.6237   -0.4610 O.2       1 <0>        -0.4336
     32 H4         -1.7933   10.8080   -1.5941 H         1 <0>         0.1248
     33 H5         -1.6614   12.5704   -1.3827 H         1 <0>         0.1257
     34 H6         -0.5140   11.7124   -2.4389 H         1 <0>         0.1325
     35 H7         -0.6374   11.4096    2.9820 H         1 <0>         0.1230
     36 H8          0.8379   11.1028    2.0345 H         1 <0>         0.1070
     37 H9          1.9630   12.9075    0.8678 H         1 <0>         0.1239
     38 H10         2.3990   15.3287    0.7626 H         1 <0>         0.1351
     39 H11         0.8526   16.9065    1.8500 H         1 <0>         0.1355
     40 H12        -1.1357   16.0637    3.0331 H         1 <0>         0.1356
     41 H13        -1.5773   13.6432    3.1294 H         1 <0>         0.1298
     42 H14        -2.7994   11.1733    2.8098 H         1 <0>         0.0903
     43 H15        -4.1047   10.7206    1.6713 H         1 <0>         0.0881
     44 H16        -3.3726    9.4033    4.3438 H         1 <0>         0.0897
     45 H17        -4.9924    9.8998    3.7496 H         1 <0>         0.1035
     46 H18        -5.0756    8.1109    2.1388 H         1 <0>         0.0942
     47 H19        -4.1946    7.3082    3.4801 H         1 <0>         0.1022
     48 H20        -3.8194    5.6464    1.3110 H         1 <0>         0.4059
     49 H21        -4.2467    3.5723   -1.6264 H         1 <0>         0.1024
     50 H22        -4.5476    3.6737    0.1251 H         1 <0>         0.0872
     51 H23        -2.1357    4.0972    0.5149 H         1 <0>         0.0828
     52 H24        -1.8348    3.9957   -1.2365 H         1 <0>         0.0868
     53 H25        -2.6790    1.6643   -1.2465 H         1 <0>         0.0960
     54 H26        -2.9800    1.7658    0.5049 H         1 <0>         0.0946
     55 H27        -0.2787    2.4390    0.0213 H         1 <0>         0.4328
     56 H28        -1.3784   -1.4601    0.0685 H         1 <0>         0.4538
     57 H29         1.3761    0.7684    0.3966 H         1 <0>         0.4401
     58 H30         0.9414   -0.8543    0.4201 H         1 <0>         0.4409
     59 H31        -5.8548    5.5646   -2.1184 H         1 <0>         0.1125
     60 N5         -0.1904   11.4419   -0.3798 N.4       1 <0>        -0.5078
     61 H32         0.4084   12.2689   -0.2715 H         1 <0>         0.4350
     62 H33         0.3945   10.6166   -0.5561 H         1 <0>         0.4390
     63 N6         -1.5851   -0.4656   -0.0249 N.pl3     1 <0>        -0.7942
     64 H34        -2.5475   -0.1559   -0.2040 H         1 <0>         0.4551
@<TRIPOS>BOND
     1    1   32 1
     2    1   33 1
     3    1   34 1
     4    1   60 1
     5    2    3 1
     6    2    4 1
     7    2   11 1
     8    2   60 1
     9    4    5 1
    10    4   35 1
    11    4   36 1
    12    5   10 ar
    13    5    6 ar
    14    6    7 ar
    15    6   37 1
    16    7    8 ar
    17    7   38 1
    18    8    9 ar
    19    8   39 1
    20    9   10 ar
    21    9   40 1
    22   10   41 1
    23   11   12 2
    24   11   13 am
    25   13   17 1
    26   13   14 1
    27   14   15 1
    28   14   42 1
    29   14   43 1
    30   15   16 1
    31   15   44 1
    32   15   45 1
    33   16   17 1
    34   16   46 1
    35   16   47 1
    36   17   18 1
    37   17   19 1
    38   19   20 2
    39   19   21 am
    40   21   22 1
    41   21   48 1
    42   22   23 1
    43   22   24 1
    44   22   30 1
    45   24   25 1
    46   24   49 1
    47   24   50 1
    48   25   26 1
    49   25   51 1
    50   25   52 1
    51   26   27 1
    52   26   53 1
    53   26   54 1
    54   27   28 1
    55   27   55 1
    56   28   29 1
    57   28   63 2
    58   29   57 1
    59   29   58 1
    60   30   31 2
    61   30   59 1
    62   56   63 1
    63   60   61 1
    64   60   62 1
    65   63   64 1
@<TRIPOS>MOLECULE
ZINC00001763
   45    47     0     0     0
SMALL
USER_CHARGES

@<TRIPOS>ATOM
      1 C1          0.4307    0.2502    2.0676 C.ar      1 <0>        -0.0153
      2 C2          1.6219    0.9331    2.1617 C.ar      1 <0>        -0.1193
      3 C3          2.6604    0.6489    1.2801 C.ar      1 <0>         0.1435
      4 C4          2.4990   -0.3267    0.3008 C.ar      1 <0>        -0.1724
      5 C5          1.3106   -1.0136    0.2008 C.ar      1 <0>        -0.0246
      6 C6          0.2649   -0.7307    1.0849 C.ar      1 <0>        -0.1135
      7 C7         -1.0096   -1.4644    0.9809 C.2       1 <0>         0.5087
      8 O1         -1.9176   -1.2170    1.7498 O.2       1 <0>        -0.4667
      9 O2         -1.1677   -2.4095    0.0332 O.3       1 <0>        -0.2923
     10 C8         -2.3923   -2.9828   -0.0978 C.ar      1 <0>         0.1259
     11 C9         -3.4217   -2.2783   -0.7313 C.ar      1 <0>        -0.1152
     12 C10        -4.6566   -2.8272   -0.8764 C.ar      1 <0>        -0.0682
     13 C11        -4.9108   -4.1213   -0.3857 C.ar      1 <0>        -0.0654
     14 C12        -6.1763   -4.7102   -0.5232 C.ar      1 <0>        -0.0099
     15 C13        -6.3918   -5.9856   -0.0291 C.ar      1 <0>        -0.1471
     16 C14        -5.3542   -6.6900    0.6072 C.ar      1 <0>        -0.0871
     17 C15        -4.1234   -6.1364    0.7499 C.ar      1 <0>        -0.0773
     18 C16        -3.8721   -4.8419    0.2575 C.ar      1 <0>        -0.0011
     19 C17        -2.6050   -4.2525    0.3893 C.ar      1 <0>        -0.1091
     20 C18        -7.7236   -6.6117   -0.1711 C.cat     1 <0>         0.5988
     21 N1         -7.9368   -7.8384    0.3023 N.pl3     1 <0>        -0.7582
     22 N2         -8.7104   -5.9491   -0.7725 N.pl3     1 <0>        -0.7622
     23 N3          3.8650    1.3431    1.3778 N.pl3     1 <0>        -0.6394
     24 C19         5.0543    0.6734    1.2516 C.cat     1 <0>         0.7482
     25 N4          6.2001    1.3513    1.2200 N.pl3     1 <0>        -0.7807
     26 N5          5.0638   -0.6552    1.1604 N.pl3     1 <0>        -0.7908
     27 H1         -0.3734    0.4685    2.7547 H         1 <0>         0.1604
     28 H2          1.7507    1.6909    2.9204 H         1 <0>         0.1556
     29 H3          3.3071   -0.5447   -0.3817 H         1 <0>         0.1475
     30 H4          1.1857   -1.7701   -0.5598 H         1 <0>         0.1596
     31 H5         -3.2326   -1.2847   -1.1100 H         1 <0>         0.1435
     32 H6         -5.4416   -2.2709   -1.3671 H         1 <0>         0.1506
     33 H7         -6.9764   -4.1730   -1.0105 H         1 <0>         0.1463
     34 H8         -5.5392   -7.6838    0.9873 H         1 <0>         0.1398
     35 H9         -3.3365   -6.6892    1.2415 H         1 <0>         0.1528
     36 H10        -1.8032   -4.7903    0.8733 H         1 <0>         0.1514
     37 H11        -7.2183   -8.3209    0.7403 H         1 <0>         0.4450
     38 H12        -8.5551   -5.0558   -1.1173 H         1 <0>         0.4433
     39 H13        -9.5841   -6.3598   -0.8657 H         1 <0>         0.4357
     40 H14         3.8617    2.3003    1.5351 H         1 <0>         0.4483
     41 H15         6.1931    2.3190    1.2864 H         1 <0>         0.4449
     42 H16         4.2274   -1.1445    1.1178 H         1 <0>         0.4412
     43 H17         5.9073   -1.1336    1.1367 H         1 <0>         0.4432
     44 H18        -8.8106   -8.2492    0.2091 H         1 <0>         0.4352
     45 H19         7.0417    0.8773    1.1307 H         1 <0>         0.4465
@<TRIPOS>BOND
     1    1    6 ar
     2    1    2 ar
     3    1   27 1
     4    2    3 ar
     5    2   28 1
     6    3    4 ar
     7    3   23 1
     8    4    5 ar
     9    4   29 1
    10    5    6 ar
    11    5   30 1
    12    6    7 1
    13    7    8 2
    14    7    9 1
    15    9   10 1
    16   10   19 ar
    17   10   11 ar
    18   11   12 ar
    19   11   31 1
    20   12   13 ar
    21   12   32 1
    22   13   18 ar
    23   13   14 ar
    24   14   15 ar
    25   14   33 1
    26   15   16 ar
    27   15   20 1
    28   16   17 ar
    29   16   34 1
    30   17   18 ar
    31   17   35 1
    32   18   19 ar
    33   19   36 1
    34   20   21 2
    35   20   22 1
    36   21   37 1
    37   21   44 1
    38   22   38 1
    39   22   39 1
    40   23   24 1
    41   23   40 1
    42   24   25 2
    43   24   26 1
    44   25   41 1
    45   25   45 1
    46   26   42 1
    47   26   43 1
@<TRIPOS>MOLECULE
ZINC13808154
   26    26     0     0     0
SMALL
USER_CHARGES

@<TRIPOS>ATOM
      1 C1         -0.0168    1.3849    0.0097 C.ar      1 <0>        -0.2172
      2 C2          1.1707    2.0901    0.0021 C.ar      1 <0>         0.0322
      3 C3          2.3774    1.4150   -0.0135 C.ar      1 <0>        -0.7379
      4 C4          2.3998    0.0323   -0.0211 C.ar      1 <0>         0.0260
      5 C5          1.2161   -0.6790   -0.0137 C.ar      1 <0>        -0.2168
      6 C6          0.0021   -0.0041    0.0020 C.ar      1 <0>         0.2728
      7 N1         -1.1970   -0.7204    0.0101 N.pl3     1 <0>        -0.8637
      8 S1          3.8900    2.3186   -0.0243 S.o2      1 <0>         2.7001
      9 O1          4.8717    1.4606   -0.5894 O.2       1 <0>        -0.9428
     10 O2          3.5945    3.5988   -0.5657 O.2       1 <0>        -0.9432
     11 N2          4.3264    2.5618    1.5546 N.pl3     1 <0>        -0.9005
     12 N3          4.5541    1.4645    2.3954 N.pl3     1 <0>        -0.5517
     13 C7          5.7497    1.3471    3.0639 C.2       1 <0>         0.6388
     14 N4          6.6714    2.2567    2.9154 N.2       1 <0>        -0.8116
     15 N5          5.9731    0.2704    3.8889 N.pl3     1 <0>        -0.8423
     16 H1         -0.9589    1.9127    0.0260 H         1 <0>         0.1324
     17 H2          1.1567    3.1700    0.0080 H         1 <0>         0.1412
     18 H3          3.3440   -0.4918   -0.0333 H         1 <0>         0.1408
     19 H4          1.2342   -1.7588   -0.0200 H         1 <0>         0.1325
     20 H5         -2.0441   -0.2480    0.0210 H         1 <0>         0.4048
     21 H6         -1.1825   -1.6903    0.0047 H         1 <0>         0.4047
     22 H7          4.4243    3.4639    1.8973 H         1 <0>         0.4217
     23 H8          3.8682    0.7876    2.5059 H         1 <0>         0.4104
     24 H9          5.2872   -0.4066    3.9994 H         1 <0>         0.4033
     25 H10         6.8167    0.1876    4.3606 H         1 <0>         0.4238
     26 H11         6.5137    3.0165    2.3333 H         1 <0>         0.3423
@<TRIPOS>BOND
     1    1    6 ar
     2    1    2 ar
     3    1   16 1
     4    2    3 ar
     5    2   17 1
     6    3    4 ar
     7    3    8 1
     8    4    5 ar
     9    4   18 1
    10    5    6 ar
    11    5   19 1
    12    6    7 1
    13    7   20 1
    14    7   21 1
    15    8    9 2
    16    8   10 2
    17    8   11 1
    18   11   12 1
    19   11   22 1
    20   12   13 1
    21   12   23 1
    22   13   14 2
    23   13   15 1
    24   14   26 1
    25   15   24 1
    26   15   25 1
@<TRIPOS>MOLECULE
ZINC13808154
   26    26     0     0     0
SMALL
USER_CHARGES

@<TRIPOS>ATOM
      1 C1         -0.0168    1.3849    0.0097 C.ar      1 <0>        -0.2212
      2 C2          1.1707    2.0901    0.0021 C.ar      1 <0>         0.0252
      3 C3          2.3774    1.4150   -0.0135 C.ar      1 <0>        -0.7214
      4 C4          2.3998    0.0323   -0.0211 C.ar      1 <0>         0.0429
      5 C5          1.2161   -0.6790   -0.0137 C.ar      1 <0>        -0.2211
      6 C6          0.0021   -0.0041    0.0020 C.ar      1 <0>         0.2665
      7 N1         -1.1970   -0.7204    0.0101 N.pl3     1 <0>        -0.8681
      8 S1          3.8900    2.3186   -0.0243 S.o2      1 <0>         2.7304
      9 O1          4.8717    1.4606   -0.5894 O.2       1 <0>        -0.9509
     10 O2          3.5945    3.5988   -0.5657 O.2       1 <0>        -0.9650
     11 N2          4.3264    2.5618    1.5546 N.pl3     1 <0>        -0.9562
     12 N3          4.5541    1.4645    2.3954 N.2       1 <0>        -0.3803
     13 C7          4.8963    1.6552    3.6338 C.2       1 <0>         0.5916
     14 N4          5.0364    2.9462    4.1242 N.pl3     1 <0>        -0.8902
     15 N5          5.1219    0.5680    4.4669 N.pl3     1 <0>        -0.8445
     16 H1         -0.9589    1.9127    0.0260 H         1 <0>         0.1280
     17 H2          1.1567    3.1700    0.0080 H         1 <0>         0.1363
     18 H3          3.3440   -0.4918   -0.0333 H         1 <0>         0.1412
     19 H4          1.2342   -1.7588   -0.0200 H         1 <0>         0.1289
     20 H5         -2.0441   -0.2480    0.0210 H         1 <0>         0.4022
     21 H6         -1.1825   -1.6903    0.0047 H         1 <0>         0.4027
     22 H7          4.4243    3.4639    1.8973 H         1 <0>         0.3859
     23 H8          5.0240   -0.3341    4.1242 H         1 <0>         0.4201
     24 H9          5.3775    0.7105    5.3917 H         1 <0>         0.4087
     25 H10         4.8788    3.7059    3.5421 H         1 <0>         0.4074
     26 H11         5.2920    3.0887    5.0491 H         1 <0>         0.4008
@<TRIPOS>BOND
     1    1    6 ar
     2    1    2 ar
     3    1   16 1
     4    2    3 ar
     5    2   17 1
     6    3    4 ar
     7    3    8 1
     8    4    5 ar
     9    4   18 1
    10    5    6 ar
    11    5   19 1
    12    6    7 1
    13    7   20 1
    14    7   21 1
    15    8    9 2
    16    8   10 2
    17    8   11 1
    18   11   12 1
    19   11   22 1
    20   12   13 2
    21   13   14 1
    22   13   15 1
    23   14   25 1
    24   14   26 1
    25   15   23 1
    26   15   24 1
@<TRIPOS>MOLECULE
ZINC13808154
   26    26     0     0     0
SMALL
USER_CHARGES

@<TRIPOS>ATOM
      1 C1         -0.0168    1.3849    0.0097 C.ar      1 <0>        -0.2174
      2 C2          1.1707    2.0901    0.0021 C.ar      1 <0>         0.0323
      3 C3          2.3774    1.4150   -0.0135 C.ar      1 <0>        -0.7389
      4 C4          2.3998    0.0323   -0.0211 C.ar      1 <0>         0.0243
      5 C5          1.2161   -0.6790   -0.0137 C.ar      1 <0>        -0.2175
      6 C6          0.0021   -0.0041    0.0020 C.ar      1 <0>         0.2710
      7 N1         -1.1970   -0.7204    0.0101 N.pl3     1 <0>        -0.8648
      8 S1          3.8900    2.3186   -0.0243 S.o2      1 <0>         2.7022
      9 O1          4.8717    1.4606   -0.5894 O.2       1 <0>        -0.9464
     10 O2          3.5945    3.5988   -0.5657 O.2       1 <0>        -0.9454
     11 N2          4.3264    2.5618    1.5546 N.pl3     1 <0>        -0.8807
     12 N3          4.5541    1.4645    2.3954 N.pl3     1 <0>        -0.5054
     13 C7          5.7497    1.3471    3.0639 C.2       1 <0>         0.6352
     14 N4          6.6714    2.2567    2.9154 N.2       1 <0>        -0.8107
     15 N5          5.9731    0.2704    3.8889 N.pl3     1 <0>        -0.8919
     16 H1         -0.9589    1.9127    0.0260 H         1 <0>         0.1318
     17 H2          1.1567    3.1700    0.0080 H         1 <0>         0.1417
     18 H3          3.3440   -0.4918   -0.0333 H         1 <0>         0.1403
     19 H4          1.2342   -1.7588   -0.0200 H         1 <0>         0.1315
     20 H5         -2.0441   -0.2480    0.0210 H         1 <0>         0.4044
     21 H6         -1.1825   -1.6903    0.0047 H         1 <0>         0.4041
     22 H7          4.4243    3.4639    1.8973 H         1 <0>         0.4276
     23 H8          3.8682    0.7876    2.5059 H         1 <0>         0.4247
     24 H9          5.2872   -0.4066    3.9994 H         1 <0>         0.3910
     25 H10         6.8167    0.1876    4.3606 H         1 <0>         0.4135
     26 H11         7.5149    2.1739    3.3870 H         1 <0>         0.3434
@<TRIPOS>BOND
     1    1    6 ar
     2    1    2 ar
     3    1   16 1
     4    2    3 ar
     5    2   17 1
     6    3    4 ar
     7    3    8 1
     8    4    5 ar
     9    4   18 1
    10    5    6 ar
    11    5   19 1
    12    6    7 1
    13    7   20 1
    14    7   21 1
    15    8    9 2
    16    8   10 2
    17    8   11 1
    18   11   12 1
    19   11   22 1
    20   12   13 1
    21   12   23 1
    22   13   14 2
    23   13   15 1
    24   14   26 1
    25   15   24 1
    26   15   25 1
@<TRIPOS>MOLECULE
ZINC13808139
   24    24     0     0     0
SMALL
USER_CHARGES

@<TRIPOS>ATOM
      1 C1         -0.0167    1.3782    0.0096 C.ar      1 <0>        -0.0089
      2 C2          1.1707    2.0857    0.0021 C.ar      1 <0>        -0.1106
      3 C3          2.3778    1.4105   -0.0131 C.ar      1 <0>        -0.0355
      4 C4          2.3961    0.0274   -0.0207 C.ar      1 <0>        -0.1108
      5 C5          1.2082   -0.6793   -0.0132 C.ar      1 <0>        -0.0156
      6 C6          0.0021   -0.0041    0.0020 C.ar      1 <0>        -0.6712
      7 S1         -1.5119   -0.9055    0.0117 S.o2      1 <0>         2.6981
      8 O1         -1.2185   -2.1862    0.5528 O.2       1 <0>        -0.9314
      9 O2         -2.4926   -0.0462    0.5765 O.2       1 <0>        -0.9325
     10 N1         -1.9477   -1.1475   -1.5675 N.pl3     1 <0>        -0.8974
     11 N2         -1.0983   -1.8552   -2.4281 N.pl3     1 <0>        -0.5533
     12 C7         -1.5696   -2.9517   -3.1106 C.2       1 <0>         0.6392
     13 N3         -2.8066   -3.3327   -2.9571 N.2       1 <0>        -0.8087
     14 N4         -0.7361   -3.6462   -3.9550 N.pl3     1 <0>        -0.8414
     15 Br1         4.0026    2.3779   -0.0240 Br        1 <0>        -0.0267
     16 H1         -0.9592    1.9053    0.0260 H         1 <0>         0.1531
     17 H2          1.1559    3.1656    0.0077 H         1 <0>         0.1473
     18 H3          3.3384   -0.5003   -0.0329 H         1 <0>         0.1474
     19 H4          1.2224   -1.7592   -0.0191 H         1 <0>         0.1526
     20 H5         -2.7910   -0.7992   -1.8967 H         1 <0>         0.4249
     21 H6         -0.1778   -1.5716   -2.5423 H         1 <0>         0.4104
     22 H7          0.1844   -3.3626   -4.0693 H         1 <0>         0.4038
     23 H8         -1.0686   -4.4198   -4.4366 H         1 <0>         0.4247
     24 H9         -3.3947   -2.8427   -2.3613 H         1 <0>         0.3425
@<TRIPOS>BOND
     1    1    6 ar
     2    1    2 ar
     3    1   16 1
     4    2    3 ar
     5    2   17 1
     6    3    4 ar
     7    3   15 1
     8    4    5 ar
     9    4   18 1
    10    5    6 ar
    11    5   19 1
    12    6    7 1
    13    7    8 2
    14    7    9 2
    15    7   10 1
    16   10   11 1
    17   10   20 1
    18   11   12 1
    19   11   21 1
    20   12   13 2
    21   12   14 1
    22   13   24 1
    23   14   22 1
    24   14   23 1
@<TRIPOS>MOLECULE
ZINC13808139
   24    24     0     0     0
SMALL
USER_CHARGES

@<TRIPOS>ATOM
      1 C1         -0.0167    1.3782    0.0096 C.ar      1 <0>        -0.0149
      2 C2          1.1707    2.0857    0.0021 C.ar      1 <0>        -0.1148
      3 C3          2.3778    1.4105   -0.0131 C.ar      1 <0>        -0.0456
      4 C4          2.3961    0.0274   -0.0207 C.ar      1 <0>        -0.1148
      5 C5          1.2082   -0.6793   -0.0132 C.ar      1 <0>        -0.0149
      6 C6          0.0021   -0.0041    0.0020 C.ar      1 <0>        -0.6044
      7 S1         -1.5119   -0.9055    0.0117 S.o2      1 <0>         2.6020
      8 O1         -1.2185   -2.1862    0.5528 O.2       1 <0>        -1.0165
      9 O2         -2.4926   -0.0462    0.5765 O.2       1 <0>        -1.0165
     10 N1         -1.9477   -1.1475   -1.5675 N.2       1 <0>        -0.9435
     11 N2         -3.1245   -1.8447   -1.8705 N.pl3     1 <0>        -0.3955
     12 C7         -3.4664   -2.0345   -3.1092 C.cat     1 <0>         0.7040
     13 N3         -2.6657   -1.5465   -4.1327 N.pl3     1 <0>        -0.8141
     14 N4         -4.6323   -2.7253   -3.4093 N.pl3     1 <0>        -0.8516
     15 Br1         4.0026    2.3779   -0.0240 Br        1 <0>        -0.0403
     16 H1         -0.9592    1.9053    0.0260 H         1 <0>         0.1480
     17 H2          1.1559    3.1656    0.0077 H         1 <0>         0.1415
     18 H3          3.3384   -0.5003   -0.0329 H         1 <0>         0.1415
     19 H4          1.2224   -1.7592   -0.0191 H         1 <0>         0.1480
     20 H5         -5.1918   -3.0663   -2.6941 H         1 <0>         0.4236
     21 H6         -4.8876   -2.8671   -4.3343 H         1 <0>         0.4266
     22 H7         -1.8509   -1.0638   -3.9230 H         1 <0>         0.4409
     23 H8         -2.9210   -1.6883   -5.0577 H         1 <0>         0.4154
     24 H9         -3.6840   -2.1857   -1.1552 H         1 <0>         0.3958
@<TRIPOS>BOND
     1    1    6 ar
     2    1    2 ar
     3    1   16 1
     4    2    3 ar
     5    2   17 1
     6    3    4 ar
     7    3   15 1
     8    4    5 ar
     9    4   18 1
    10    5    6 ar
    11    5   19 1
    12    6    7 1
    13    7    8 2
    14    7    9 2
    15    7   10 1
    16   10   11 1
    17   11   12 2
    18   11   24 1
    19   12   13 1
    20   12   14 1
    21   13   22 1
    22   13   23 1
    23   14   20 1
    24   14   21 1
@<TRIPOS>MOLECULE
ZINC13808139
   25    25     0     0     0
SMALL
USER_CHARGES

@<TRIPOS>ATOM
      1 C1         -0.0167    1.3782    0.0096 C.ar      1 <0>        -0.0046
      2 C2          1.1707    2.0857    0.0021 C.ar      1 <0>        -0.1051
      3 C3          2.3778    1.4105   -0.0131 C.ar      1 <0>        -0.0286
      4 C4          2.3961    0.0274   -0.0207 C.ar      1 <0>        -0.1061
      5 C5          1.2082   -0.6793   -0.0132 C.ar      1 <0>        -0.0259
      6 C6          0.0021   -0.0041    0.0020 C.ar      1 <0>        -0.6825
      7 S1         -1.5119   -0.9055    0.0117 S.o2      1 <0>         2.6807
      8 O1         -1.2185   -2.1862    0.5528 O.2       1 <0>        -0.9098
      9 O2         -2.4926   -0.0462    0.5765 O.2       1 <0>        -0.8927
     10 N1         -1.9477   -1.1475   -1.5675 N.pl3     1 <0>        -0.9130
     11 N2         -1.0983   -1.8552   -2.4281 N.pl3     1 <0>        -0.4259
     12 C7         -1.4402   -2.0450   -3.6667 C.cat     1 <0>         0.7403
     13 N3         -2.6470   -1.5466   -4.1379 N.pl3     1 <0>        -0.8077
     14 N4         -0.5987   -2.7463   -4.5193 N.pl3     1 <0>        -0.8008
     15 Br1         4.0026    2.3779   -0.0240 Br        1 <0>        -0.0088
     16 H1         -0.9592    1.9053    0.0260 H         1 <0>         0.1565
     17 H2          1.1559    3.1656    0.0077 H         1 <0>         0.1531
     18 H3          3.3384   -0.5003   -0.0329 H         1 <0>         0.1525
     19 H4          1.2224   -1.7592   -0.0191 H         1 <0>         0.1520
     20 H5          0.2447   -3.0945   -4.1901 H         1 <0>         0.4418
     21 H6         -0.8540   -2.8880   -5.4444 H         1 <0>         0.4471
     22 H7         -3.2351   -1.0566   -3.5421 H         1 <0>         0.4345
     23 H8         -2.9023   -1.6884   -5.0629 H         1 <0>         0.4455
     24 H9         -0.2550   -2.2035   -2.0988 H         1 <0>         0.4646
     25 H10        -2.7910   -0.7992   -1.8967 H         1 <0>         0.4430
@<TRIPOS>BOND
     1    1    6 ar
     2    1    2 ar
     3    1   16 1
     4    2    3 ar
     5    2   17 1
     6    3    4 ar
     7    3   15 1
     8    4    5 ar
     9    4   18 1
    10    5    6 ar
    11    5   19 1
    12    6    7 1
    13    7    8 2
    14    7    9 2
    15    7   10 1
    16   10   11 1
    17   10   25 1
    18   11   12 2
    19   11   24 1
    20   12   13 1
    21   12   14 1
    22   13   22 1
    23   13   23 1
    24   14   20 1
    25   14   21 1
@<TRIPOS>MOLECULE
ZINC13808173
   30    31     0     0     0
SMALL
USER_CHARGES

@<TRIPOS>ATOM
      1 C1         -0.0164    1.3567    0.0095 C.ar      1 <0>        -0.0899
      2 C2          1.1686    2.0905    0.0021 C.ar      1 <0>        -0.1200
      3 C3          2.3785    1.4675   -0.0131 C.ar      1 <0>        -0.0895
      4 C4          2.4375    0.0634   -0.0211 C.ar      1 <0>        -0.0804
      5 C5          3.6681   -0.6153   -0.0364 C.ar      1 <0>         0.0250
      6 C6          3.6865   -1.9761   -0.0434 C.ar      1 <0>        -0.6770
      7 C7          2.5015   -2.7098   -0.0357 C.ar      1 <0>        -0.0503
      8 C8          1.2917   -2.0868   -0.0209 C.ar      1 <0>        -0.1130
      9 C9          1.2327   -0.6827   -0.0133 C.ar      1 <0>        -0.0103
     10 C10         0.0021   -0.0041    0.0020 C.ar      1 <0>        -0.1201
     11 S1          5.2315   -2.8230   -0.0631 S.o2      1 <0>         2.6960
     12 O1          4.9835   -4.1075   -0.6179 O.2       1 <0>        -0.9337
     13 O2          6.1807   -1.9234   -0.6189 O.2       1 <0>        -0.9375
     14 N1          5.6766   -3.0663    1.5133 N.pl3     1 <0>        -0.8984
     15 N2          4.8535   -3.8129    2.3664 N.pl3     1 <0>        -0.5522
     16 C11         5.3638   -4.8992    3.0370 C.2       1 <0>         0.6392
     17 N3          6.6135   -5.2344    2.8792 N.2       1 <0>        -0.8101
     18 N4          4.5560   -5.6319    3.8742 N.pl3     1 <0>        -0.8416
     19 H1         -0.9633    1.8757    0.0259 H         1 <0>         0.1303
     20 H2          1.1260    3.1696    0.0083 H         1 <0>         0.1307
     21 H3          3.2884    2.0491   -0.0194 H         1 <0>         0.1352
     22 H4          4.5943   -0.0599   -0.0428 H         1 <0>         0.1482
     23 H5          2.5441   -3.7890   -0.0419 H         1 <0>         0.1414
     24 H6          0.3816   -2.6684   -0.0154 H         1 <0>         0.1388
     25 H7         -0.9241   -0.5595    0.0082 H         1 <0>         0.1343
     26 H8          6.5072   -2.6918    1.8461 H         1 <0>         0.4235
     27 H9          3.9235   -3.5635    2.4839 H         1 <0>         0.4111
     28 H10         3.6261   -5.3824    3.9917 H         1 <0>         0.4037
     29 H11         4.9161   -6.3983    4.3473 H         1 <0>         0.4243
     30 H12         7.1834   -4.7174    2.2885 H         1 <0>         0.3422
@<TRIPOS>BOND
     1    1   10 ar
     2    1    2 ar
     3    1   19 1
     4    2    3 ar
     5    2   20 1
     6    3    4 ar
     7    3   21 1
     8    4    9 ar
     9    4    5 ar
    10    5    6 ar
    11    5   22 1
    12    6    7 ar
    13    6   11 1
    14    7    8 ar
    15    7   23 1
    16    8    9 ar
    17    8   24 1
    18    9   10 ar
    19   10   25 1
    20   11   12 2
    21   11   13 2
    22   11   14 1
    23   14   15 1
    24   14   26 1
    25   15   16 1
    26   15   27 1
    27   16   17 2
    28   16   18 1
    29   17   30 1
    30   18   28 1
    31   18   29 1
@<TRIPOS>MOLECULE
ZINC13808173
   30    31     0     0     0
SMALL
USER_CHARGES

@<TRIPOS>ATOM
      1 C1         -0.0164    1.3567    0.0095 C.ar      1 <0>        -0.0987
      2 C2          1.1686    2.0905    0.0021 C.ar      1 <0>        -0.1257
      3 C3          2.3785    1.4675   -0.0131 C.ar      1 <0>        -0.0899
      4 C4          2.4375    0.0634   -0.0211 C.ar      1 <0>        -0.0790
      5 C5          3.6681   -0.6153   -0.0364 C.ar      1 <0>         0.0127
      6 C6          3.6865   -1.9761   -0.0434 C.ar      1 <0>        -0.6117
      7 C7          2.5015   -2.7098   -0.0357 C.ar      1 <0>        -0.0388
      8 C8          1.2917   -2.0868   -0.0209 C.ar      1 <0>        -0.1251
      9 C9          1.2327   -0.6827   -0.0133 C.ar      1 <0>        -0.0161
     10 C10         0.0021   -0.0041    0.0020 C.ar      1 <0>        -0.1187
     11 S1          5.2315   -2.8230   -0.0631 S.o2      1 <0>         2.6013
     12 O1          4.9835   -4.1075   -0.6179 O.2       1 <0>        -1.0182
     13 O2          6.1807   -1.9234   -0.6189 O.2       1 <0>        -1.0206
     14 N1          5.6766   -3.0663    1.5133 N.2       1 <0>        -0.9445
     15 N2          6.8776   -3.7245    1.8085 N.pl3     1 <0>        -0.3943
     16 C11         7.2268   -3.9153    3.0450 C.cat     1 <0>         0.7023
     17 N3          6.4099   -3.4670    4.0739 N.pl3     1 <0>        -0.8145
     18 N4          8.4167   -4.5674    3.3375 N.pl3     1 <0>        -0.8522
     19 H1         -0.9633    1.8757    0.0259 H         1 <0>         0.1263
     20 H2          1.1260    3.1696    0.0083 H         1 <0>         0.1267
     21 H3          3.2884    2.0491   -0.0194 H         1 <0>         0.1317
     22 H4          4.5943   -0.0599   -0.0428 H         1 <0>         0.1438
     23 H5          2.5441   -3.7890   -0.0419 H         1 <0>         0.1378
     24 H6          0.3816   -2.6684   -0.0154 H         1 <0>         0.1339
     25 H7         -0.9241   -0.5595    0.0082 H         1 <0>         0.1306
     26 H8          8.9875   -4.8806    2.6185 H         1 <0>         0.4233
     27 H9          8.6775   -4.7099    4.2608 H         1 <0>         0.4263
     28 H10         5.5784   -3.0113    3.8696 H         1 <0>         0.4409
     29 H11         6.6707   -3.6095    4.9973 H         1 <0>         0.4150
     30 H12         7.4484   -4.0377    1.0895 H         1 <0>         0.3952
@<TRIPOS>BOND
     1    1   10 ar
     2    1    2 ar
     3    1   19 1
     4    2    3 ar
     5    2   20 1
     6    3    4 ar
     7    3   21 1
     8    4    9 ar
     9    4    5 ar
    10    5    6 ar
    11    5   22 1
    12    6    7 ar
    13    6   11 1
    14    7    8 ar
    15    7   23 1
    16    8    9 ar
    17    8   24 1
    18    9   10 ar
    19   10   25 1
    20   11   12 2
    21   11   13 2
    22   11   14 1
    23   14   15 1
    24   15   16 2
    25   15   30 1
    26   16   17 1
    27   16   18 1
    28   17   28 1
    29   17   29 1
    30   18   26 1
    31   18   27 1
@<TRIPOS>MOLECULE
ZINC13808173
   31    32     0     0     0
SMALL
USER_CHARGES

@<TRIPOS>ATOM
      1 C1         -0.0164    1.3567    0.0095 C.ar      1 <0>        -0.0795
      2 C2          1.1686    2.0905    0.0021 C.ar      1 <0>        -0.1111
      3 C3          2.3785    1.4675   -0.0131 C.ar      1 <0>        -0.0912
      4 C4          2.4375    0.0634   -0.0211 C.ar      1 <0>        -0.0806
      5 C5          3.6681   -0.6153   -0.0364 C.ar      1 <0>         0.0356
      6 C6          3.6865   -1.9761   -0.0434 C.ar      1 <0>        -0.6886
      7 C7          2.5015   -2.7098   -0.0357 C.ar      1 <0>        -0.0706
      8 C8          1.2917   -2.0868   -0.0209 C.ar      1 <0>        -0.0989
      9 C9          1.2327   -0.6827   -0.0133 C.ar      1 <0>        -0.0079
     10 C10         0.0021   -0.0041    0.0020 C.ar      1 <0>        -0.1212
     11 S1          5.2315   -2.8230   -0.0631 S.o2      1 <0>         2.6771
     12 O1          4.9835   -4.1075   -0.6179 O.2       1 <0>        -0.9125
     13 O2          6.1807   -1.9234   -0.6189 O.2       1 <0>        -0.8988
     14 N1          5.6766   -3.0663    1.5133 N.pl3     1 <0>        -0.9140
     15 N2          4.8535   -3.8129    2.3664 N.pl3     1 <0>        -0.4232
     16 C11         5.2026   -4.0037    3.6029 C.cat     1 <0>         0.7392
     17 N3          6.3913   -3.4679    4.0791 N.pl3     1 <0>        -0.8087
     18 N4          4.3871   -4.7435    4.4482 N.pl3     1 <0>        -0.8017
     19 H1         -0.9633    1.8757    0.0259 H         1 <0>         0.1360
     20 H2          1.1260    3.1696    0.0083 H         1 <0>         0.1361
     21 H3          3.2884    2.0491   -0.0194 H         1 <0>         0.1384
     22 H4          4.5943   -0.0599   -0.0428 H         1 <0>         0.1509
     23 H5          2.5441   -3.7890   -0.0419 H         1 <0>         0.1397
     24 H6          0.3816   -2.6684   -0.0154 H         1 <0>         0.1429
     25 H7         -0.9241   -0.5595    0.0082 H         1 <0>         0.1385
     26 H8          3.5564   -5.1180    4.1154 H         1 <0>         0.4417
     27 H9          4.6478   -4.8860    5.3715 H         1 <0>         0.4465
     28 H10         6.9612   -2.9509    3.4884 H         1 <0>         0.4342
     29 H11         6.6520   -3.6103    5.0024 H         1 <0>         0.4449
     30 H12         4.0228   -4.1874    2.0337 H         1 <0>         0.4653
     31 H13         6.5072   -2.6918    1.8461 H         1 <0>         0.4416
@<TRIPOS>BOND
     1    1   10 ar
     2    1    2 ar
     3    1   19 1
     4    2    3 ar
     5    2   20 1
     6    3    4 ar
     7    3   21 1
     8    4    9 ar
     9    4    5 ar
    10    5    6 ar
    11    5   22 1
    12    6    7 ar
    13    6   11 1
    14    7    8 ar
    15    7   23 1
    16    8    9 ar
    17    8   24 1
    18    9   10 ar
    19   10   25 1
    20   11   12 2
    21   11   13 2
    22   11   14 1
    23   14   15 1
    24   14   31 1
    25   15   16 2
    26   15   30 1
    27   16   17 1
    28   16   18 1
    29   17   28 1
    30   17   29 1
    31   18   26 1
    32   18   27 1
@<TRIPOS>MOLECULE
ZINC03936607
   57    60     0     0     0
SMALL
USER_CHARGES

@<TRIPOS>ATOM
      1 C1         -0.0173    1.4248    0.0099 C.3       1 <0>         0.0244
      2 O1          0.0021   -0.0041    0.0020 O.3       1 <0>        -0.3145
      3 C2          0.6057   -0.6070   -1.0556 C.ar      1 <0>         0.1266
      4 C3          1.1742    0.1768   -2.0647 C.ar      1 <0>        -0.1670
      5 C4          1.7851   -0.3974   -3.1353 C.ar      1 <0>        -0.0816
      6 C5          1.8489   -1.7984   -3.2331 C.ar      1 <0>        -0.0381
      7 C6          2.4730   -2.4247   -4.3253 C.ar      1 <0>        -0.1076
      8 C7          2.5170   -3.7836   -4.3878 C.ar      1 <0>        -0.0476
      9 C8          1.9516   -4.5670   -3.3833 C.ar      1 <0>        -0.6460
     10 C9          1.3390   -3.9957   -2.3107 C.ar      1 <0>         0.0242
     11 C10         1.2739   -2.5950   -2.2114 C.ar      1 <0>        -0.0294
     12 C11         0.6543   -1.9705   -1.1164 C.ar      1 <0>        -0.1402
     13 S1          2.0305   -6.3231   -3.5041 S.o2      1 <0>         2.6870
     14 O2          0.9575   -6.8325   -2.7241 O.2       1 <0>        -0.9476
     15 O3          2.1818   -6.6288   -4.8836 O.2       1 <0>        -0.9485
     16 N1          3.4283   -6.8029   -2.7569 N.pl3     1 <0>        -1.0969
     17 C12         3.5963   -6.5979   -1.3161 C.3       1 <0>         0.1162
     18 H1          2.6253   -6.5357   -0.8248 H         1 <0>         0.1341
     19 C13         4.4414   -7.7380   -0.7021 C.3       1 <0>        -0.1337
     20 C14         5.2643   -6.9811    0.3639 C.3       1 <0>         0.0980
     21 N2          5.3375   -5.5941   -0.1101 N.am      1 <0>        -0.6148
     22 C15         4.4053   -5.3476   -1.0500 C.2       1 <0>         0.5017
     23 O4          4.2392   -4.2817   -1.6041 O.2       1 <0>        -0.5013
     24 C16         6.2997   -4.6033    0.3786 C.3       1 <0>         0.1597
     25 C17         7.5480   -4.6572   -0.4640 C.ar      1 <0>        -0.1016
     26 C18         8.5833   -5.5045   -0.1108 C.ar      1 <0>        -0.0414
     27 C19         9.7323   -5.5598   -0.8790 C.ar      1 <0>        -0.1120
     28 C20         9.8529   -4.7687   -2.0032 C.ar      1 <0>        -0.0571
     29 C21         8.8127   -3.9124   -2.3647 C.ar      1 <0>        -0.1595
     30 C22         7.6537   -3.8658   -1.5890 C.ar      1 <0>        -0.0417
     31 C23         8.9356   -3.0611   -3.5687 C.cat     1 <0>         0.6019
     32 N3         10.1336   -2.6345   -3.9630 N.pl3     1 <0>        -0.7591
     33 N4          7.8481   -2.7216   -4.2579 N.pl3     1 <0>        -0.7571
     34 H2          1.0053    1.8021    0.0021 H         1 <0>         0.0562
     35 H3         -0.5445    1.7859   -0.8732 H         1 <0>         0.0584
     36 H4         -0.5275    1.7763    0.9067 H         1 <0>         0.1056
     37 H5          1.1270    1.2534   -1.9928 H         1 <0>         0.1353
     38 H6          2.2191    0.2203   -3.9076 H         1 <0>         0.1344
     39 H7          2.9152   -1.8307   -5.1114 H         1 <0>         0.1294
     40 H8          2.9971   -4.2621   -5.2286 H         1 <0>         0.1322
     41 H9          0.9049   -4.6153   -1.5399 H         1 <0>         0.1398
     42 H10         0.2157   -2.5652   -0.3288 H         1 <0>         0.1396
     43 H11         4.1358   -7.2198   -3.2732 H         1 <0>         0.4220
     44 H12         3.8033   -8.4912   -0.2400 H         1 <0>         0.1095
     45 H13         5.0931   -8.1875   -1.4514 H         1 <0>         0.0944
     46 H14         4.7606   -7.0237    1.3296 H         1 <0>         0.0867
     47 H15         6.2648   -7.4069    0.4404 H         1 <0>         0.0858
     48 H16         5.8605   -3.6078    0.3141 H         1 <0>         0.1007
     49 H17         6.5519   -4.8226    1.4161 H         1 <0>         0.1028
     50 H18         8.4940   -6.1251    0.7686 H         1 <0>         0.1450
     51 H19        10.5369   -6.2231   -0.5981 H         1 <0>         0.1497
     52 H20        10.7508   -4.8122   -2.6018 H         1 <0>         0.1403
     53 H21         6.8430   -3.2083   -1.8663 H         1 <0>         0.1424
     54 H22        10.9259   -2.8818   -3.4609 H         1 <0>         0.4461
     55 H23         6.9753   -3.0324   -3.9706 H         1 <0>         0.4478
     56 H24         7.9286   -2.1636   -5.0471 H         1 <0>         0.4333
     57 H25        10.2142   -2.0764   -4.7523 H         1 <0>         0.4334
@<TRIPOS>BOND
     1    1    2 1
     2    1   34 1
     3    1   35 1
     4    1   36 1
     5    2    3 1
     6    3   12 ar
     7    3    4 ar
     8    4    5 ar
     9    4   37 1
    10    5    6 ar
    11    5   38 1
    12    6   11 ar
    13    6    7 ar
    14    7    8 ar
    15    7   39 1
    16    8    9 ar
    17    8   40 1
    18    9   10 ar
    19    9   13 1
    20   10   11 ar
    21   10   41 1
    22   11   12 ar
    23   12   42 1
    24   13   14 2
    25   13   15 2
    26   13   16 1
    27   16   17 1
    28   16   43 1
    29   17   18 1
    30   17   22 1
    31   17   19 1
    32   19   20 1
    33   19   44 1
    34   19   45 1
    35   20   21 1
    36   20   46 1
    37   20   47 1
    38   21   22 am
    39   21   24 1
    40   22   23 2
    41   24   25 1
    42   24   48 1
    43   24   49 1
    44   25   30 ar
    45   25   26 ar
    46   26   27 ar
    47   26   50 1
    48   27   28 ar
    49   27   51 1
    50   28   29 ar
    51   28   52 1
    52   29   30 ar
    53   29   31 1
    54   30   53 1
    55   31   32 2
    56   31   33 1
    57   32   54 1
    58   32   57 1
    59   33   55 1
    60   33   56 1
@<TRIPOS>MOLECULE
ZINC03873927
   24    24     0     0     0
SMALL
USER_CHARGES

@<TRIPOS>ATOM
      1 C1         -0.0168    1.3849    0.0097 C.ar      1 <0>        -0.2190
      2 C2          1.1707    2.0901    0.0021 C.ar      1 <0>         0.0297
      3 C3          2.3774    1.4150   -0.0135 C.ar      1 <0>        -0.6921
      4 C4          2.3998    0.0323   -0.0211 C.ar      1 <0>         0.0297
      5 C5          1.2161   -0.6790   -0.0137 C.ar      1 <0>        -0.2189
      6 C6          0.0021   -0.0041    0.0020 C.ar      1 <0>         0.2662
      7 N1         -1.1970   -0.7204    0.0101 N.pl3     1 <0>        -0.8673
      8 S1          3.8900    2.3186   -0.0243 S.o2      1 <0>         2.6539
      9 O1          4.8717    1.4606   -0.5894 O.2       1 <0>        -0.9933
     10 O2          3.5945    3.5988   -0.5657 O.2       1 <0>        -0.9933
     11 N2          4.3264    2.5618    1.5546 N.2       1 <0>        -1.0531
     12 C7          5.4204    3.2122    1.8357 C.2       1 <0>         0.7470
     13 N3          6.2121    3.6964    0.8213 N.pl3     1 <0>        -0.8802
     14 N4          5.7826    3.4141    3.1464 N.pl3     1 <0>        -0.8187
     15 H1         -0.9589    1.9127    0.0260 H         1 <0>         0.1305
     16 H2          1.1567    3.1700    0.0080 H         1 <0>         0.1387
     17 H3          3.3440   -0.4918   -0.0333 H         1 <0>         0.1387
     18 H4          1.2342   -1.7588   -0.0200 H         1 <0>         0.1305
     19 H5         -2.0441   -0.2480    0.0210 H         1 <0>         0.4029
     20 H6         -1.1825   -1.6903    0.0047 H         1 <0>         0.4029
     21 H7          5.9565    3.5539   -0.1035 H         1 <0>         0.4125
     22 H8          7.0263    4.1804    1.0305 H         1 <0>         0.4128
     23 H9          5.2240    3.0725    3.8621 H         1 <0>         0.4292
     24 H10         6.5968    3.8981    3.3556 H         1 <0>         0.4110
@<TRIPOS>BOND
     1    1    6 ar
     2    1    2 ar
     3    1   15 1
     4    2    3 ar
     5    2   16 1
     6    3    4 ar
     7    3    8 1
     8    4    5 ar
     9    4   17 1
    10    5    6 ar
    11    5   18 1
    12    6    7 1
    13    7   19 1
    14    7   20 1
    15    8    9 2
    16    8   10 2
    17    8   11 1
    18   11   12 2
    19   12   13 1
    20   12   14 1
    21   13   21 1
    22   13   22 1
    23   14   23 1
    24   14   24 1
@<TRIPOS>MOLECULE
ZINC13808126
   44    45     0     0     0
SMALL
USER_CHARGES

@<TRIPOS>ATOM
      1 C1         -0.0178    1.4608    0.0101 C.3       1 <0>         0.0867
      2 N1          0.0021   -0.0041    0.0020 N.pl3     1 <0>        -0.6226
      3 C2          1.2806   -0.7192   -0.0140 C.3       1 <0>         0.0836
      4 C3         -1.1942   -0.7166    0.0096 C.ar      1 <0>         0.2579
      5 C4         -1.1732   -2.1084    0.0077 C.ar      1 <0>        -0.2100
      6 C5         -2.3535   -2.8163    0.0152 C.ar      1 <0>         0.0106
      7 C6         -3.5756   -2.1351    0.0247 C.ar      1 <0>        -0.0313
      8 C7         -3.5925   -0.7360    0.0266 C.ar      1 <0>        -0.0270
      9 C8         -2.4079   -0.0353    0.0249 C.ar      1 <0>        -0.2083
     10 N2         -4.7478   -2.8333    0.0317 N.2       1 <0>        -0.1701
     11 N3         -5.8736   -2.2036    0.0405 N.2       1 <0>        -0.2636
     12 C9         -7.0481   -2.9032    0.0475 C.ar      1 <0>         0.1218
     13 C10        -7.0330   -4.3006    0.0510 C.ar      1 <0>        -0.1370
     14 C11        -8.2218   -4.9996    0.0580 C.ar      1 <0>        -0.0158
     15 C12        -9.4277   -4.3206    0.0616 C.ar      1 <0>        -0.6298
     16 C13        -9.4505   -2.9369    0.0578 C.ar      1 <0>        -0.0169
     17 C14        -8.2696   -2.2244    0.0571 C.ar      1 <0>        -0.0947
     18 S1        -10.9415   -5.2223    0.0706 S.o2      1 <0>         2.6484
     19 O1        -11.9301   -4.3616   -0.4780 O.2       1 <0>        -0.9793
     20 O2        -10.6555   -6.5014   -0.4783 O.2       1 <0>        -0.9796
     21 N4        -11.3551   -5.4689    1.6550 N.2       1 <0>        -1.0481
     22 C15       -12.4437   -6.1174    1.9498 C.2       1 <0>         0.6960
     23 N5        -13.2499   -6.5975    0.9469 N.pl3     1 <0>        -0.8427
     24 O3        -12.7812   -6.3186    3.2423 O.3       1 <0>        -0.3071
     25 C16       -11.8966   -5.7919    4.2333 C.3       1 <0>         0.0502
     26 H1          1.0048    1.8381    0.0023 H         1 <0>         0.0788
     27 H2         -0.5450    1.8219   -0.8730 H         1 <0>         0.0608
     28 H3         -0.5280    1.8123    0.9069 H         1 <0>         0.0609
     29 H4          1.6074   -0.9021    1.0096 H         1 <0>         0.0562
     30 H5          1.1583   -1.6705   -0.5318 H         1 <0>         0.0743
     31 H6          2.0272   -0.1171   -0.5318 H         1 <0>         0.0729
     32 H7         -0.2294   -2.6335   -0.0001 H         1 <0>         0.1362
     33 H8         -2.3363   -3.8962    0.0133 H         1 <0>         0.1383
     34 H9         -4.5339   -0.2066    0.0337 H         1 <0>         0.1398
     35 H10        -2.4201    1.0446    0.0308 H         1 <0>         0.1300
     36 H11        -6.0927   -4.8318    0.0477 H         1 <0>         0.1451
     37 H12        -8.2117   -6.0796    0.0603 H         1 <0>         0.1433
     38 H13       -10.3953   -2.4137    0.0604 H         1 <0>         0.1481
     39 H14        -8.2889   -1.1446    0.0590 H         1 <0>         0.1444
     40 H15       -13.0076   -6.4530    0.0188 H         1 <0>         0.4200
     41 H16       -11.8210   -4.7109    4.1152 H         1 <0>         0.0740
     42 H17       -12.2839   -6.0227    5.2257 H         1 <0>         0.1085
     43 H18       -10.9101   -6.2401    4.1150 H         1 <0>         0.0738
     44 H19       -14.0616   -7.0810    1.1666 H         1 <0>         0.4238
@<TRIPOS>BOND
     1    1    2 1
     2    1   26 1
     3    1   27 1
     4    1   28 1
     5    2    3 1
     6    2    4 1
     7    3   29 1
     8    3   30 1
     9    3   31 1
    10    4    9 ar
    11    4    5 ar
    12    5    6 ar
    13    5   32 1
    14    6    7 ar
    15    6   33 1
    16    7    8 ar
    17    7   10 1
    18    8    9 ar
    19    8   34 1
    20    9   35 1
    21   10   11 2
    22   11   12 1
    23   12   17 ar
    24   12   13 ar
    25   13   14 ar
    26   13   36 1
    27   14   15 ar
    28   14   37 1
    29   15   16 ar
    30   15   18 1
    31   16   17 ar
    32   16   38 1
    33   17   39 1
    34   18   19 2
    35   18   20 2
    36   18   21 1
    37   21   22 2
    38   22   23 1
    39   22   24 1
    40   23   40 1
    41   23   44 1
    42   24   25 1
    43   25   41 1
    44   25   42 1
    45   25   43 1
@<TRIPOS>MOLECULE
ZINC13741968
   38    39     0     0     0
SMALL
USER_CHARGES
2-[4-(4-guanidinobenzoyl)oxyphenyl]acetic acid
@<TRIPOS>ATOM
      1 C1         -1.2389   -4.4036    0.9218 C.ar      1 <0>        -0.1022
      2 C2         -2.5779   -4.7369    0.8561 C.ar      1 <0>        -0.1072
      3 C3         -3.4594   -3.9276    0.1540 C.ar      1 <0>         0.0421
      4 C4         -2.9941   -2.7825   -0.4764 C.ar      1 <0>        -0.1111
      5 C5         -1.6550   -2.4511   -0.4036 C.ar      1 <0>        -0.1014
      6 C6         -0.7787   -3.2592    0.2971 C.ar      1 <0>        -0.0095
      7 C7          0.6816   -2.8952    0.3749 C.3       1 <0>        -0.1382
      8 C8          0.9183   -2.0224    1.5804 C.2       1 <0>         0.4662
      9 O1         -0.0042   -1.7261    2.3022 O.co2     1 <0>        -0.6318
     10 O2         -4.7764   -4.2555    0.0842 O.3       1 <0>        -0.2805
     11 C9         -5.2106   -4.8024   -1.0685 C.2       1 <0>         0.4878
     12 O3         -4.4291   -5.0059   -1.9766 O.2       1 <0>        -0.4712
     13 C10        -6.6333   -5.1537   -1.2277 C.ar      1 <0>        -0.0987
     14 C11        -7.5329   -4.9255   -0.1817 C.ar      1 <0>        -0.0268
     15 C12        -8.8616   -5.2489   -0.3361 C.ar      1 <0>        -0.1742
     16 C13        -9.3081   -5.8141   -1.5271 C.ar      1 <0>         0.1282
     17 C14        -8.4145   -6.0480   -2.5683 C.ar      1 <0>        -0.1250
     18 C15        -7.0855   -5.7212   -2.4231 C.ar      1 <0>        -0.0214
     19 N1        -10.6525   -6.1460   -1.6776 N.pl3     1 <0>        -0.6336
     20 C16       -11.6251   -5.3558   -1.1062 C.cat     1 <0>         0.7438
     21 N2        -11.2777   -4.1796   -0.4847 N.pl3     1 <0>        -0.8043
     22 H1         -0.5517   -5.0355    1.4647 H         1 <0>         0.1298
     23 H2         -2.9377   -5.6287    1.3476 H         1 <0>         0.1249
     24 H3         -3.6783   -2.1507   -1.0231 H         1 <0>         0.1205
     25 H4         -1.2923   -1.5598   -0.8940 H         1 <0>         0.1283
     26 H5          0.9700   -2.3551   -0.5269 H         1 <0>         0.0809
     27 H6          1.2783   -3.8033    0.4610 H         1 <0>         0.0813
     28 H7         -7.1862   -4.4918    0.7446 H         1 <0>         0.1608
     29 H8         -9.5578   -5.0683    0.4694 H         1 <0>         0.1462
     30 H9         -8.7644   -6.4860   -3.4913 H         1 <0>         0.1494
     31 H10        -6.3928   -5.9027   -3.2315 H         1 <0>         0.1587
     32 H11       -10.9038   -6.9337   -2.1849 H         1 <0>         0.4439
     33 H12       -13.6318   -5.2343   -0.7815 H         1 <0>         0.4555
     34 H13       -10.3798   -3.8261   -0.5827 H         1 <0>         0.4447
     35 H14       -11.9306   -3.7033    0.0518 H         1 <0>         0.4389
     36 O4          2.1549   -1.5784    1.8552 O.co2     1 <0>        -0.7645
     37 N3        -12.8758   -5.7845   -1.1895 N.pl3     1 <0>        -0.7884
     38 H15       -13.0843   -6.6705   -1.6645 H         1 <0>         0.4583
@<TRIPOS>BOND
     1    1    6 ar
     2    1    2 ar
     3    1   22 1
     4    2    3 ar
     5    2   23 1
     6    3    4 ar
     7    3   10 1
     8    4    5 ar
     9    4   24 1
    10    5    6 ar
    11    5   25 1
    12    6    7 1
    13    7    8 1
    14    7   26 1
    15    7   27 1
    16    8    9 2
    17    8   36 1
    18   10   11 1
    19   11   12 2
    20   11   13 1
    21   13   18 ar
    22   13   14 ar
    23   14   15 ar
    24   14   28 1
    25   15   16 ar
    26   15   29 1
    27   16   17 ar
    28   16   19 1
    29   17   18 ar
    30   17   30 1
    31   18   31 1
    32   19   20 1
    33   19   32 1
    34   20   21 1
    35   20   37 2
    36   21   34 1
    37   21   35 1
    38   33   37 1
    39   37   38 1
@<TRIPOS>MOLECULE
ZINC01908051
   60    62     0     0     0
SMALL
USER_CHARGES
methyl 2-[(3-amidinophenyl)methyl]-3-[4-(1-oxido-4-pyridyl)benzoyl]amino-butanoate
@<TRIPOS>ATOM
      1 H1         -0.1553   -3.7790   -0.0180 H         1 <0>         0.4440
      2 C1          1.3480   -2.4062   -0.0243 C.cat     1 <0>         0.6009
      3 C2          1.6147   -0.9496   -0.0185 C.ar      1 <0>        -0.1651
      4 C3          2.9274   -0.4781   -0.0287 C.ar      1 <0>        -0.0547
      5 C4          3.1697    0.8802   -0.0237 C.ar      1 <0>        -0.1195
      6 C5          2.1136    1.7740   -0.0086 C.ar      1 <0>        -0.0208
      7 C6          0.8098    1.3125    0.0014 C.ar      1 <0>        -0.0864
      8 C7          0.5548   -0.0438   -0.0034 C.ar      1 <0>        -0.0602
      9 C8         -0.3348    2.2928    0.0114 C.3       1 <0>        -0.0751
     10 C9         -0.7150    2.6180    1.4574 C.3       1 <0>        -0.0861
     11 H2         -0.9299    1.6935    1.9933 H         1 <0>         0.1164
     12 C10        -1.9549    3.5145    1.4692 C.3       1 <0>         0.1514
     13 H3         -1.7400    4.4390    0.9333 H         1 <0>         0.1015
     14 C11        -3.1161    2.7880    0.7876 C.3       1 <0>        -0.1683
     15 N1         -2.3191    3.8259    2.8537 N.am      1 <0>        -0.7205
     16 C12        -3.0139    4.9467    3.1319 C.2       1 <0>         0.5643
     17 O1         -3.3387    5.6991    2.2340 O.2       1 <0>        -0.5258
     18 C13        -3.3812    5.2607    4.5281 C.ar      1 <0>        -0.1256
     19 C14        -3.0134    4.3935    5.5596 C.ar      1 <0>        -0.0807
     20 C15        -3.3515    4.6897    6.8609 C.ar      1 <0>        -0.1078
     21 C16        -4.0709    5.8500    7.1483 C.ar      1 <0>        -0.0286
     22 C17        -4.4436    6.7138    6.1184 C.ar      1 <0>        -0.1049
     23 C18        -4.1015    6.4223    4.8169 C.ar      1 <0>        -0.0536
     24 C19        -4.4399    6.1649    8.5495 C.ar      1 <0>        -0.0119
     25 C20        -5.1558    7.3250    8.8600 C.ar      1 <0>        -0.1128
     26 C21        -5.4829    7.5777   10.1762 C.ar      1 <0>         0.0819
     27 N2         -5.1205    6.7465   11.1359 N.ar      1 <0>        -0.1194
     28 C22        -4.4392    5.6436   10.8858 C.ar      1 <0>         0.0801
     29 C23        -4.0762    5.3128    9.5966 C.ar      1 <0>        -0.1146
     30 O2         -5.4729    7.0473   12.4741 O.3       1 <0>        -0.5398
     31 C24         0.4287    3.3337    2.1287 C.2       1 <0>         0.4648
     32 O3          1.4438    3.5603    1.5139 O.2       1 <0>        -0.5003
     33 O4          0.3197    3.7194    3.4098 O.3       1 <0>        -0.3522
     34 C25         1.4605    4.4035    3.9917 C.3       1 <0>         0.0355
     35 N3          2.3975   -3.2987   -0.0393 N.pl3     1 <0>        -0.7813
     36 H4          3.7526   -1.1748   -0.0408 H         1 <0>         0.1359
     37 H5          4.1857    1.2464   -0.0311 H         1 <0>         0.1472
     38 H6          2.3082    2.8363   -0.0047 H         1 <0>         0.1676
     39 H7         -0.4637   -0.4029    0.0048 H         1 <0>         0.1346
     40 H8         -0.0343    3.2074   -0.4997 H         1 <0>         0.1018
     41 H9         -1.1922    1.8556   -0.5002 H         1 <0>         0.1058
     42 H10        -2.8452    2.5562   -0.2424 H         1 <0>         0.0741
     43 H11        -3.3310    1.8634    1.3235 H         1 <0>         0.0630
     44 H12        -3.9994    3.4265    0.7961 H         1 <0>         0.0757
     45 H13        -2.0600    3.2255    3.5701 H         1 <0>         0.4038
     46 H14        -2.4600    3.4931    5.3368 H         1 <0>         0.1308
     47 H15        -3.0637    4.0215    7.6590 H         1 <0>         0.1364
     48 H16        -5.0005    7.6118    6.3419 H         1 <0>         0.1392
     49 H17        -4.3903    7.0912    4.0197 H         1 <0>         0.1443
     50 H18        -5.4517    8.0114    8.0804 H         1 <0>         0.1673
     51 H19        -6.0393    8.4692   10.4253 H         1 <0>         0.1873
     52 H20        -4.1628    4.9915   11.7012 H         1 <0>         0.1861
     53 H21        -3.5189    4.4090    9.3991 H         1 <0>         0.1653
     54 H22         2.3328    3.7508    3.9555 H         1 <0>         0.0649
     55 H23         1.6644    5.3139    3.4280 H         1 <0>         0.0674
     56 H24         1.2409    4.6593    5.0282 H         1 <0>         0.1059
     57 H25         3.3111   -2.9730   -0.0460 H         1 <0>         0.4429
     58 H26         2.2227   -4.2528   -0.0430 H         1 <0>         0.4311
     59 N4          0.0797   -2.7863   -0.0145 N.pl3     1 <0>        -0.7619
     60 H27        -0.6673   -2.0819   -0.0035 H         1 <0>         0.4588
@<TRIPOS>BOND
     1    1   59 1
     2    2    3 1
     3    2   35 1
     4    2   59 2
     5    3    8 ar
     6    3    4 ar
     7    4    5 ar
     8    4   36 1
     9    5    6 ar
    10    5   37 1
    11    6    7 ar
    12    6   38 1
    13    7    8 ar
    14    7    9 1
    15    8   39 1
    16    9   10 1
    17    9   40 1
    18    9   41 1
    19   10   11 1
    20   10   12 1
    21   10   31 1
    22   12   13 1
    23   12   14 1
    24   12   15 1
    25   14   42 1
    26   14   43 1
    27   14   44 1
    28   15   16 am
    29   15   45 1
    30   16   17 2
    31   16   18 1
    32   18   23 ar
    33   18   19 ar
    34   19   20 ar
    35   19   46 1
    36   20   21 ar
    37   20   47 1
    38   21   22 ar
    39   21   24 1
    40   22   23 ar
    41   22   48 1
    42   23   49 1
    43   24   29 ar
    44   24   25 ar
    45   25   26 ar
    46   25   50 1
    47   26   27 ar
    48   26   51 1
    49   27   28 ar
    50   27   30 1
    51   28   29 ar
    52   28   52 1
    53   29   53 1
    54   31   32 2
    55   31   33 1
    56   33   34 1
    57   34   54 1
    58   34   55 1
    59   34   56 1
    60   35   57 1
    61   35   58 1
    62   59   60 1
@<TRIPOS>MOLECULE
ZINC01910616
   60    63     0     0     0
SMALL
USER_CHARGES
3-[[2-[(4-amidinophenyl)aminomethyl]-1-methyl-benzoimidazol-5-yl]carbonyl-(2-pyridyl)amino]propanoic acid
@<TRIPOS>ATOM
      1 C1          0.5865   -1.8473    1.7596 C.3       1 <0>         0.0728
      2 N1         -0.0011   -1.5841    3.0754 N.pl3     1 <0>        -0.4807
      3 C2          0.6873   -1.4122    4.2568 C.ar      1 <0>         0.0845
      4 C3          2.0357   -1.4239    4.5969 C.ar      1 <0>        -0.1121
      5 C4          2.4180   -1.2162    5.8900 C.ar      1 <0>        -0.0691
      6 C5          1.4591   -0.9894    6.8866 C.ar      1 <0>        -0.1346
      7 C6          0.1055   -0.9743    6.5647 C.ar      1 <0>         0.0074
      8 C7         -0.2888   -1.1862    5.2445 C.ar      1 <0>         0.0276
      9 N2         -1.4970   -1.2314    4.6247 N.2       1 <0>        -0.4522
     10 C8         -1.3270   -1.4583    3.3553 C.2       1 <0>         0.2306
     11 C9         -2.4371   -1.5695    2.3423 C.3       1 <0>         0.2000
     12 N3         -2.8760   -2.9642    2.2500 N.pl3     1 <0>        -0.7081
     13 C10        -3.8991   -3.3156    1.3732 C.ar      1 <0>         0.2903
     14 C11        -4.5076   -2.3402    0.5894 C.ar      1 <0>        -0.2017
     15 C12        -5.5157   -2.6860   -0.2827 C.ar      1 <0>         0.0008
     16 C13        -5.9350   -4.0149   -0.3716 C.ar      1 <0>        -0.2332
     17 C14        -5.3265   -4.9907    0.4201 C.ar      1 <0>        -0.0066
     18 C15        -4.3149   -4.6405    1.2864 C.ar      1 <0>        -0.1916
     19 C16        -7.0210   -4.3881   -1.3031 C.cat     1 <0>         0.6028
     20 N4         -7.6208   -3.4237   -2.0842 N.pl3     1 <0>        -0.7922
     21 C17         1.8864   -0.7664    8.2821 C.2       1 <0>         0.5708
     22 O1          1.2765    0.0138    8.9873 O.2       1 <0>        -0.5153
     23 N5          2.9525   -1.4280    8.7743 N.am      1 <0>        -0.5330
     24 C18         3.8077   -2.2092    7.8774 C.3       1 <0>         0.0980
     25 C19         5.0983   -1.4353    7.6010 C.3       1 <0>        -0.1787
     26 C20         5.9781   -2.2389    6.6784 C.2       1 <0>         0.4674
     27 O2          5.6107   -3.3197    6.2826 O.co2     1 <0>        -0.6418
     28 C21         3.2412   -1.3688   10.1360 C.ar      1 <0>         0.3587
     29 C22         2.2767   -0.9077   11.0253 C.ar      1 <0>        -0.1939
     30 C23         2.5746   -0.8598   12.3755 C.ar      1 <0>        -0.0597
     31 C24         3.8359   -1.2656   12.7904 C.ar      1 <0>        -0.2031
     32 C25         4.7469   -1.7068   11.8515 C.ar      1 <0>         0.1276
     33 N6          4.4328   -1.7471   10.5707 N.ar      1 <0>        -0.4989
     34 H1          0.6785   -2.9233    1.6114 H         1 <0>         0.0794
     35 H2          1.5730   -1.3872    1.7035 H         1 <0>         0.0947
     36 H3         -0.0549   -1.4275    0.9847 H         1 <0>         0.0858
     37 H4          2.7819   -1.5982    3.8358 H         1 <0>         0.1371
     38 H5          3.4668   -1.2268    6.1473 H         1 <0>         0.1711
     39 H6         -0.6342   -0.7993    7.3319 H         1 <0>         0.1440
     40 H7         -3.2751   -0.9447    2.6514 H         1 <0>         0.1102
     41 H8         -2.0757   -1.2372    1.3692 H         1 <0>         0.0941
     42 H9         -2.4539   -3.6429    2.7996 H         1 <0>         0.4168
     43 H10        -4.1860   -1.3117    0.6618 H         1 <0>         0.1452
     44 H11        -5.9847   -1.9293   -0.8940 H         1 <0>         0.1350
     45 H12        -5.6487   -6.0194    0.3530 H         1 <0>         0.1335
     46 H13        -3.8437   -5.3951    1.8989 H         1 <0>         0.1452
     47 H14        -8.1155   -5.9726   -1.9664 H         1 <0>         0.4390
     48 H15        -7.3305   -2.5003   -2.0228 H         1 <0>         0.4401
     49 H16        -8.3332   -3.6685   -2.6952 H         1 <0>         0.4268
     50 H17         4.0496   -3.1634    8.3456 H         1 <0>         0.0897
     51 H18         3.2830   -2.3876    6.9389 H         1 <0>         0.1112
     52 H19         4.8566   -0.4811    7.1328 H         1 <0>         0.0627
     53 H20         5.6231   -1.2568    8.5395 H         1 <0>         0.0925
     54 H21         1.3068   -0.5952   10.6673 H         1 <0>         0.1662
     55 H22         1.8440   -0.5105   13.0902 H         1 <0>         0.1341
     56 H23         4.1018   -1.2361   13.8368 H         1 <0>         0.1331
     57 H24         5.7293   -2.0235   12.1695 H         1 <0>         0.1595
     58 N7         -7.3714   -5.6657   -1.3399 N.pl3     1 <0>        -0.7722
     59 H25        -6.8937   -6.3465   -0.7377 H         1 <0>         0.4572
     60 O3          7.1701   -1.7540    6.2963 O.co2     1 <0>        -0.7646
@<TRIPOS>BOND
     1    1    2 1
     2    1   34 1
     3    1   35 1
     4    1   36 1
     5    2   10 1
     6    2    3 1
     7    3    8 ar
     8    3    4 ar
     9    4    5 ar
    10    4   37 1
    11    5    6 ar
    12    5   38 1
    13    6    7 ar
    14    6   21 1
    15    7    8 ar
    16    7   39 1
    17    8    9 1
    18    9   10 2
    19   10   11 1
    20   11   12 1
    21   11   40 1
    22   11   41 1
    23   12   13 1
    24   12   42 1
    25   13   18 ar
    26   13   14 ar
    27   14   15 ar
    28   14   43 1
    29   15   16 ar
    30   15   44 1
    31   16   17 ar
    32   16   19 1
    33   17   18 ar
    34   17   45 1
    35   18   46 1
    36   19   20 1
    37   19   58 2
    38   20   48 1
    39   20   49 1
    40   21   22 2
    41   21   23 am
    42   23   24 1
    43   23   28 1
    44   24   25 1
    45   24   50 1
    46   24   51 1
    47   25   26 1
    48   25   52 1
    49   25   53 1
    50   26   27 2
    51   26   60 1
    52   28   33 ar
    53   28   29 ar
    54   29   30 ar
    55   29   54 1
    56   30   31 ar
    57   30   55 1
    58   31   32 ar
    59   31   56 1
    60   32   33 ar
    61   32   57 1
    62   47   58 1
    63   58   59 1
@<TRIPOS>MOLECULE
ZINC01530775
   51    52     0     0     0
SMALL
USER_CHARGES

@<TRIPOS>ATOM
      1 C1         -0.0169    1.3924    0.0097 C.ar      1 <0>        -0.0145
      2 C2          1.1675    2.0955    0.0022 C.ar      1 <0>        -0.1494
      3 C3          2.3802    1.4171   -0.0135 C.ar      1 <0>         0.2053
      4 C4          2.4031    0.0276   -0.0217 C.ar      1 <0>        -0.2123
      5 C5          1.2228   -0.6824   -0.0138 C.ar      1 <0>        -0.0111
      6 C6          0.0021   -0.0041    0.0020 C.ar      1 <0>        -0.2020
      7 C7         -1.2662   -0.7620    0.0105 C.cat     1 <0>         0.6035
      8 N1         -1.2462   -2.0942    0.0032 N.pl3     1 <0>        -0.7664
      9 N2         -2.4299   -0.1132    0.0256 N.pl3     1 <0>        -0.7643
     10 O1          3.5453    2.1133   -0.0214 O.3       1 <0>        -0.2957
     11 C8          4.7553    1.3532   -0.0374 C.3       1 <0>         0.0514
     12 C9          5.9545    2.3033   -0.0443 C.3       1 <0>        -0.1221
     13 C10         7.2499    1.4894   -0.0615 C.3       1 <0>        -0.1133
     14 C11         8.4491    2.4396   -0.0683 C.3       1 <0>        -0.1221
     15 C12         9.7445    1.6257   -0.0855 C.3       1 <0>         0.0514
     16 O2         10.8646    2.5131   -0.0919 O.3       1 <0>        -0.2957
     17 C13        12.0985    1.9479   -0.1072 C.ar      1 <0>         0.2053
     18 C14        12.2269    0.5642   -0.1216 C.ar      1 <0>        -0.2124
     19 C15        13.4774   -0.0130   -0.1367 C.ar      1 <0>        -0.0111
     20 C16        14.6171    0.7942   -0.1379 C.ar      1 <0>        -0.2020
     21 C17        14.4841    2.1844   -0.1239 C.ar      1 <0>        -0.0146
     22 C18        13.2303    2.7544   -0.1141 C.ar      1 <0>        -0.1493
     23 C19        15.9604    0.1789   -0.1536 C.cat     1 <0>         0.6035
     24 N3         17.0466    0.9505   -0.1548 N.pl3     1 <0>        -0.7642
     25 N4         16.0854   -1.1476   -0.1666 N.pl3     1 <0>        -0.7664
     26 H1         -0.9589    1.9203    0.0260 H         1 <0>         0.1455
     27 H2          1.1536    3.1754    0.0081 H         1 <0>         0.1574
     28 H3          3.3474   -0.4962   -0.0346 H         1 <0>         0.1509
     29 H4          1.2413   -1.7622   -0.0204 H         1 <0>         0.1404
     30 H5         -0.3991   -2.5665   -0.0077 H         1 <0>         0.4422
     31 H6         -2.4445    0.8567    0.0309 H         1 <0>         0.4437
     32 H7         -3.2626   -0.6108    0.0312 H         1 <0>         0.4338
     33 H8          4.7984    0.7200    0.8488 H         1 <0>         0.0738
     34 H9          4.7807    0.7296   -0.9311 H         1 <0>         0.0738
     35 H10         5.9113    2.9365   -0.9305 H         1 <0>         0.0832
     36 H11         5.9290    2.9269    0.8494 H         1 <0>         0.0832
     37 H12         7.2930    0.8563    0.8247 H         1 <0>         0.0727
     38 H13         7.2753    0.8658   -0.9551 H         1 <0>         0.0727
     39 H14         8.4060    3.0727   -0.9545 H         1 <0>         0.0832
     40 H15         8.4236    3.0632    0.8253 H         1 <0>         0.0832
     41 H16         9.7877    0.9925    0.8007 H         1 <0>         0.0738
     42 H17         9.7700    1.0021   -0.9792 H         1 <0>         0.0738
     43 H18        11.3451   -0.0593   -0.1207 H         1 <0>         0.1509
     44 H19        13.5764   -1.0884   -0.1472 H         1 <0>         0.1404
     45 H20        15.3632    2.8117   -0.1244 H         1 <0>         0.1455
     46 H21        13.1265    3.8294   -0.1073 H         1 <0>         0.1574
     47 H22        16.9556    1.9162   -0.1453 H         1 <0>         0.4437
     48 H23        15.2946   -1.7093   -0.1657 H         1 <0>         0.4422
     49 H24        16.9672   -1.5515   -0.1768 H         1 <0>         0.4336
     50 H25        -2.0789   -2.5918    0.0088 H         1 <0>         0.4337
     51 H26        17.9285    0.5466   -0.1650 H         1 <0>         0.4338
@<TRIPOS>BOND
     1    1    6 ar
     2    1    2 ar
     3    1   26 1
     4    2    3 ar
     5    2   27 1
     6    3    4 ar
     7    3   10 1
     8    4    5 ar
     9    4   28 1
    10    5    6 ar
    11    5   29 1
    12    6    7 1
    13    7    8 2
    14    7    9 1
    15    8   30 1
    16    8   50 1
    17    9   31 1
    18    9   32 1
    19   10   11 1
    20   11   12 1
    21   11   33 1
    22   11   34 1
    23   12   13 1
    24   12   35 1
    25   12   36 1
    26   13   14 1
    27   13   37 1
    28   13   38 1
    29   14   15 1
    30   14   39 1
    31   14   40 1
    32   15   16 1
    33   15   41 1
    34   15   42 1
    35   16   17 1
    36   17   22 ar
    37   17   18 ar
    38   18   19 ar
    39   18   43 1
    40   19   20 ar
    41   19   44 1
    42   20   21 ar
    43   20   23 1
    44   21   22 ar
    45   21   45 1
    46   22   46 1
    47   23   24 2
    48   23   25 1
    49   24   47 1
    50   24   51 1
    51   25   48 1
    52   25   49 1
@<TRIPOS>MOLECULE
ZINC01996109
   53    54     0     0     0
SMALL
USER_CHARGES
4-[3-(4-amidino-2-methoxy-phenoxy)propoxy]-3-methoxy-benzamidine
@<TRIPOS>ATOM
      1 C1         -7.8225    2.2310    0.1062 C.3       1 <0>         0.0161
      2 O1         -6.6341    3.0245    0.0933 O.3       1 <0>        -0.2908
      3 C2         -5.4479    2.3594    0.0723 C.ar      1 <0>         0.1153
      4 C3         -5.4304    0.9774    0.0594 C.ar      1 <0>        -0.1288
      5 C4         -4.2113    0.2980    0.0446 C.ar      1 <0>        -0.1586
      6 C5         -3.0151    1.0165    0.0365 C.ar      1 <0>        -0.0405
      7 C6         -3.0385    2.3950    0.0437 C.ar      1 <0>        -0.1809
      8 C7         -4.2501    3.0712    0.0589 C.ar      1 <0>         0.1756
      9 O2         -4.2684    4.4297    0.0664 O.3       1 <0>        -0.2820
     10 C8         -3.0042    5.0956    0.0578 C.3       1 <0>         0.0565
     11 C9         -3.2251    6.6096    0.0680 C.3       1 <0>        -0.1250
     12 C10        -1.8714    7.3226    0.0589 C.3       1 <0>         0.0565
     13 O3         -2.0779    8.7366    0.0685 O.3       1 <0>        -0.2820
     14 C11        -0.9691    9.5218    0.0621 C.ar      1 <0>         0.1755
     15 C12         0.2910    8.9408    0.0470 C.ar      1 <0>        -0.1808
     16 C13         1.4189    9.7337    0.0399 C.ar      1 <0>        -0.0406
     17 C14         1.2950   11.1237    0.0481 C.ar      1 <0>        -0.1586
     18 C15         0.0280   11.7088    0.0638 C.ar      1 <0>        -0.1288
     19 C16        -1.0994   10.9090    0.0651 C.ar      1 <0>         0.1153
     20 O4         -2.3355   11.4761    0.0738 O.3       1 <0>        -0.2908
     21 C17        -2.3943   12.9039    0.0764 C.3       1 <0>         0.0161
     22 C18         2.5045   11.9754    0.0406 C.cat     1 <0>         0.6024
     23 N1          3.7551   11.3963    0.0256 N.pl3     1 <0>        -0.7806
     24 C19        -4.1874   -1.1810    0.0369 C.cat     1 <0>         0.6024
     25 N2         -2.9829   -1.8507    0.0218 N.pl3     1 <0>        -0.7807
     26 H1         -8.6951    2.8840    0.1226 H         1 <0>         0.1175
     27 H2         -7.8524    1.6070   -0.7870 H         1 <0>         0.0620
     28 H3         -7.8264    1.5969    0.9927 H         1 <0>         0.0621
     29 H4         -6.3580    0.4243    0.0657 H         1 <0>         0.1470
     30 H5         -2.0707    0.4926    0.0251 H         1 <0>         0.1440
     31 H6         -2.1119    2.9498    0.0377 H         1 <0>         0.1579
     32 H7         -2.4348    4.8056    0.9408 H         1 <0>         0.0773
     33 H8         -2.4518    4.8152   -0.8390 H         1 <0>         0.0773
     34 H9         -3.7945    6.8996   -0.8149 H         1 <0>         0.0963
     35 H10        -3.7775    6.8900    0.9649 H         1 <0>         0.0963
     36 H11        -1.3021    7.0325    0.9420 H         1 <0>         0.0774
     37 H12        -1.3190    7.0421   -0.8379 H         1 <0>         0.0774
     38 H13         0.3883    7.8652    0.0403 H         1 <0>         0.1579
     39 H14         2.3984    9.2791    0.0278 H         1 <0>         0.1440
     40 H15        -0.0714   12.7842    0.0701 H         1 <0>         0.1471
     41 H16        -1.8901   13.2867    0.9637 H         1 <0>         0.0620
     42 H17        -1.9016   13.2895   -0.8162 H         1 <0>         0.0621
     43 H18        -3.4361   13.2246    0.0835 H         1 <0>         0.1175
     44 H19         3.1209   13.9165    0.0444 H         1 <0>         0.4458
     45 H20         3.8421   10.4303    0.0199 H         1 <0>         0.4420
     46 H21         4.5481   11.9549    0.0207 H         1 <0>         0.4325
     47 H22        -5.3931   -2.8224    0.0405 H         1 <0>         0.4458
     48 H23        -2.1509   -1.3521    0.0162 H         1 <0>         0.4420
     49 H24        -2.9672   -2.8206    0.0168 H         1 <0>         0.4326
     50 N3          2.3180   13.2872    0.0490 N.pl3     1 <0>        -0.7608
     51 H25         1.3655   13.6703    0.0603 H         1 <0>         0.4578
     52 N4         -5.3573   -1.8029    0.0452 N.pl3     1 <0>        -0.7608
     53 H26        -6.2279   -1.2587    0.0564 H         1 <0>         0.4578
@<TRIPOS>BOND
     1    1    2 1
     2    1   26 1
     3    1   27 1
     4    1   28 1
     5    2    3 1
     6    3    8 ar
     7    3    4 ar
     8    4    5 ar
     9    4   29 1
    10    5    6 ar
    11    5   24 1
    12    6    7 ar
    13    6   30 1
    14    7    8 ar
    15    7   31 1
    16    8    9 1
    17    9   10 1
    18   10   11 1
    19   10   32 1
    20   10   33 1
    21   11   12 1
    22   11   34 1
    23   11   35 1
    24   12   13 1
    25   12   36 1
    26   12   37 1
    27   13   14 1
    28   14   19 ar
    29   14   15 ar
    30   15   16 ar
    31   15   38 1
    32   16   17 ar
    33   16   39 1
    34   17   18 ar
    35   17   22 1
    36   18   19 ar
    37   18   40 1
    38   19   20 1
    39   20   21 1
    40   21   41 1
    41   21   42 1
    42   21   43 1
    43   22   23 1
    44   22   50 2
    45   23   45 1
    46   23   46 1
    47   24   25 1
    48   24   52 2
    49   25   48 1
    50   25   49 1
    51   44   50 1
    52   47   52 1
    53   50   51 1
    54   52   53 1
@<TRIPOS>MOLECULE
ZINC03785147
   48    49     0     0     0
SMALL
USER_CHARGES
4-[4-(4-amidinophenoxy)butoxy]benzamidine
@<TRIPOS>ATOM
      1 C1          4.0285    0.3330   -0.0329 C.ar      1 <0>        -0.0189
      2 C2          3.2100    1.4415   -0.0191 C.ar      1 <0>        -0.1476
      3 C3          3.7636    2.7156   -0.0177 C.ar      1 <0>         0.2028
      4 C4          5.1434    2.8771   -0.0301 C.ar      1 <0>        -0.2112
      5 C5          5.9678    1.7731   -0.0438 C.ar      1 <0>        -0.0100
      6 C6          5.4150    0.4915   -0.0454 C.ar      1 <0>        -0.2008
      7 C7          6.2969   -0.6961   -0.0597 C.cat     1 <0>         0.6022
      8 N1          7.6659   -0.5378   -0.0720 N.pl3     1 <0>        -0.7839
      9 O1          2.9543    3.8056   -0.0040 O.3       1 <0>        -0.2973
     10 C8          3.5897    5.0856   -0.0033 C.3       1 <0>         0.0525
     11 C9          2.5246    6.1839    0.0129 C.3       1 <0>        -0.1190
     12 C10         3.2050    7.5542    0.0137 C.3       1 <0>        -0.1190
     13 C11         2.1399    8.6524    0.0298 C.3       1 <0>         0.0525
     14 O2          2.7754    9.9324    0.0306 O.3       1 <0>        -0.2973
     15 C12         1.9660   11.0224    0.0442 C.ar      1 <0>         0.2029
     16 C13         0.5862   10.8610    0.0508 C.ar      1 <0>        -0.2113
     17 C14        -0.2382   11.9649    0.0695 C.ar      1 <0>        -0.0098
     18 C15         0.3145   13.2466    0.0711 C.ar      1 <0>        -0.2009
     19 C16         1.7012   13.4051    0.0591 C.ar      1 <0>        -0.0189
     20 C17         2.5196   12.2967    0.0457 C.ar      1 <0>        -0.1475
     21 C18        -0.5672   14.4342    0.0859 C.cat     1 <0>         0.6022
     22 N2         -1.9362   14.2759    0.0978 N.pl3     1 <0>        -0.7839
     23 H1          3.5974   -0.6573   -0.0337 H         1 <0>         0.1442
     24 H2          2.1369    1.3196   -0.0140 H         1 <0>         0.1571
     25 H3          5.5704    3.8691   -0.0292 H         1 <0>         0.1513
     26 H4          7.0403    1.8994   -0.0531 H         1 <0>         0.1413
     27 H5          6.2743   -2.7326   -0.0695 H         1 <0>         0.4449
     28 H6          8.0511    0.3524   -0.0713 H         1 <0>         0.4412
     29 H7          8.2441   -1.3165   -0.0814 H         1 <0>         0.4318
     30 H8          4.2201    5.1778    0.8812 H         1 <0>         0.0765
     31 H9          4.2030    5.1873   -0.8986 H         1 <0>         0.0765
     32 H10         1.8943    6.0916   -0.8716 H         1 <0>         0.0847
     33 H11         1.9114    6.0821    0.9083 H         1 <0>         0.0847
     34 H12         3.8354    7.6464    0.8982 H         1 <0>         0.0847
     35 H13         3.8182    7.6559   -0.8816 H         1 <0>         0.0847
     36 H14         1.5095    8.5603   -0.8546 H         1 <0>         0.0766
     37 H15         1.5266    8.5507    0.9253 H         1 <0>         0.0766
     38 H16         0.1591    9.8690    0.0451 H         1 <0>         0.1513
     39 H17        -1.3107   11.8387    0.0788 H         1 <0>         0.1413
     40 H18         2.1322   14.3954    0.0606 H         1 <0>         0.1442
     41 H19         3.5926   12.4185    0.0368 H         1 <0>         0.1570
     42 H20        -0.5447   16.4706    0.0972 H         1 <0>         0.4449
     43 H21        -2.3215   13.3857    0.0964 H         1 <0>         0.4412
     44 H22        -2.5145   15.0546    0.1075 H         1 <0>         0.4318
     45 N3          5.7090   -1.8835   -0.0599 N.pl3     1 <0>        -0.7623
     46 H23         4.6843   -1.9490   -0.0503 H         1 <0>         0.4591
     47 N4          0.0207   15.6215    0.0872 N.pl3     1 <0>        -0.7623
     48 H24         1.0453   15.6870    0.0780 H         1 <0>         0.4591
@<TRIPOS>BOND
     1    1    6 ar
     2    1    2 ar
     3    1   23 1
     4    2    3 ar
     5    2   24 1
     6    3    4 ar
     7    3    9 1
     8    4    5 ar
     9    4   25 1
    10    5    6 ar
    11    5   26 1
    12    6    7 1
    13    7    8 1
    14    7   45 2
    15    8   28 1
    16    8   29 1
    17    9   10 1
    18   10   11 1
    19   10   30 1
    20   10   31 1
    21   11   12 1
    22   11   32 1
    23   11   33 1
    24   12   13 1
    25   12   34 1
    26   12   35 1
    27   13   14 1
    28   13   36 1
    29   13   37 1
    30   14   15 1
    31   15   20 ar
    32   15   16 ar
    33   16   17 ar
    34   16   38 1
    35   17   18 ar
    36   17   39 1
    37   18   19 ar
    38   18   21 1
    39   19   20 ar
    40   19   40 1
    41   20   41 1
    42   21   22 1
    43   21   47 2
    44   22   43 1
    45   22   44 1
    46   27   45 1
    47   42   47 1
    48   45   46 1
    49   47   48 1
@<TRIPOS>MOLECULE
ZINC01705403
   54    55     0     0     0
SMALL
USER_CHARGES
4-[6-(4-amidinophenoxy)hexoxy]benzamidine
@<TRIPOS>ATOM
      1 C1          4.8032    0.3323   -0.0406 C.ar      1 <0>        -0.0190
      2 C2          3.9848    1.4408   -0.0268 C.ar      1 <0>        -0.1488
      3 C3          4.5384    2.7150   -0.0253 C.ar      1 <0>         0.2043
      4 C4          5.9181    2.8765   -0.0377 C.ar      1 <0>        -0.2120
      5 C5          6.7425    1.7724   -0.0515 C.ar      1 <0>        -0.0098
      6 C6          6.1898    0.4909   -0.0531 C.ar      1 <0>        -0.2029
      7 C7          7.0717   -0.6967   -0.0674 C.cat     1 <0>         0.6025
      8 N1          8.4406   -0.5384   -0.0797 N.pl3     1 <0>        -0.7845
      9 O1          3.7290    3.8050   -0.0116 O.3       1 <0>        -0.2970
     10 C8          4.3644    5.0850   -0.0108 C.3       1 <0>         0.0506
     11 C9          3.2993    6.1832    0.0054 C.3       1 <0>        -0.1220
     12 C10         3.9797    7.5535    0.0062 C.3       1 <0>        -0.1166
     13 C11         2.9145    8.6517    0.0223 C.3       1 <0>        -0.1166
     14 C12         3.5949   10.0222    0.0232 C.3       1 <0>        -0.1220
     15 C13         2.5297   11.1204    0.0394 C.3       1 <0>         0.0506
     16 O2          3.1652   12.4003    0.0401 O.3       1 <0>        -0.2970
     17 C14         2.3558   13.4904    0.0538 C.ar      1 <0>         0.2043
     18 C15         0.9759   13.3289    0.0604 C.ar      1 <0>        -0.2120
     19 C16         0.1516   14.4328    0.0792 C.ar      1 <0>        -0.0098
     20 C17         0.7043   15.7144    0.0808 C.ar      1 <0>        -0.2030
     21 C18         2.0910   15.8729    0.0688 C.ar      1 <0>        -0.0189
     22 C19         2.9094   14.7646    0.0553 C.ar      1 <0>        -0.1488
     23 C20        -0.1775   16.9021    0.0957 C.cat     1 <0>         0.6025
     24 N2         -1.5465   16.7437    0.1076 N.pl3     1 <0>        -0.7845
     25 H1          4.3722   -0.6580   -0.0414 H         1 <0>         0.1437
     26 H2          2.9117    1.3189   -0.0217 H         1 <0>         0.1568
     27 H3          6.3451    3.8685   -0.0369 H         1 <0>         0.1512
     28 H4          7.8150    1.8988   -0.0608 H         1 <0>         0.1407
     29 H5          7.0491   -2.7332   -0.0773 H         1 <0>         0.4443
     30 H6          8.8259    0.3519   -0.0791 H         1 <0>         0.4412
     31 H7          9.0189   -1.3171   -0.0892 H         1 <0>         0.4314
     32 H8          4.9948    5.1771    0.8736 H         1 <0>         0.0738
     33 H9          4.9776    5.1866   -0.9062 H         1 <0>         0.0737
     34 H10         2.6690    6.0910   -0.8791 H         1 <0>         0.0800
     35 H11         2.6861    6.0814    0.9008 H         1 <0>         0.0800
     36 H12         4.6100    7.6457    0.8907 H         1 <0>         0.0711
     37 H13         4.5928    7.6553   -0.8891 H         1 <0>         0.0711
     38 H14         2.2841    8.5596   -0.8621 H         1 <0>         0.0711
     39 H15         2.3012    8.5500    0.9178 H         1 <0>         0.0711
     40 H16         4.2252   10.1143    0.9077 H         1 <0>         0.0800
     41 H17         4.2080   10.1239   -0.8722 H         1 <0>         0.0800
     42 H18         1.8993   11.0283   -0.8451 H         1 <0>         0.0737
     43 H19         1.9165   11.0186    0.9347 H         1 <0>         0.0738
     44 H20         0.5490   12.3369    0.0547 H         1 <0>         0.1512
     45 H21        -0.9210   14.3065    0.0885 H         1 <0>         0.1407
     46 H22         2.5219   16.8633    0.0703 H         1 <0>         0.1436
     47 H23         3.9824   14.8864    0.0464 H         1 <0>         0.1568
     48 H24        -0.1550   18.9384    0.1069 H         1 <0>         0.4443
     49 H25        -1.9317   15.8535    0.1061 H         1 <0>         0.4412
     50 H26        -2.1247   17.5224    0.1173 H         1 <0>         0.4313
     51 N3          6.4838   -1.8841   -0.0676 N.pl3     1 <0>        -0.7629
     52 H27         5.4592   -1.9496   -0.0580 H         1 <0>         0.4590
     53 N4          0.4104   18.0894    0.0968 N.pl3     1 <0>        -0.7628
     54 H28         1.4350   18.1549    0.0876 H         1 <0>         0.4590
@<TRIPOS>BOND
     1    1    6 ar
     2    1    2 ar
     3    1   25 1
     4    2    3 ar
     5    2   26 1
     6    3    4 ar
     7    3    9 1
     8    4    5 ar
     9    4   27 1
    10    5    6 ar
    11    5   28 1
    12    6    7 1
    13    7    8 1
    14    7   51 2
    15    8   30 1
    16    8   31 1
    17    9   10 1
    18   10   11 1
    19   10   32 1
    20   10   33 1
    21   11   12 1
    22   11   34 1
    23   11   35 1
    24   12   13 1
    25   12   36 1
    26   12   37 1
    27   13   14 1
    28   13   38 1
    29   13   39 1
    30   14   15 1
    31   14   40 1
    32   14   41 1
    33   15   16 1
    34   15   42 1
    35   15   43 1
    36   16   17 1
    37   17   22 ar
    38   17   18 ar
    39   18   19 ar
    40   18   44 1
    41   19   20 ar
    42   19   45 1
    43   20   21 ar
    44   20   23 1
    45   21   22 ar
    46   21   46 1
    47   22   47 1
    48   23   24 1
    49   23   53 2
    50   24   49 1
    51   24   50 1
    52   29   51 1
    53   48   53 1
    54   51   52 1
    55   53   54 1
@<TRIPOS>MOLECULE
ZINC03869685
   32    34     0     0     0
SMALL
USER_CHARGES

@<TRIPOS>ATOM
      1 C1          0.9741   -0.2755   -0.9644 C.ar      1 <0>        -0.0748
      2 C2          2.1569    0.4329   -0.9701 C.ar      1 <0>        -0.1346
      3 C3          2.3856    1.4156   -0.0177 C.ar      1 <0>         0.1032
      4 C4          1.4203    1.6918    0.9495 C.ar      1 <0>         0.0788
      5 C5          0.2328    0.9863    0.9617 C.ar      1 <0>        -0.0762
      6 C6          0.0021   -0.0041    0.0020 C.ar      1 <0>        -0.0447
      7 C7         -1.2637   -0.7605    0.0100 C.2       1 <0>         0.1350
      8 C8         -2.4363   -0.0759    0.1235 C.2       1 <0>        -0.0429
      9 C9         -3.6628   -0.7894    0.1327 C.2       1 <0>         0.4011
     10 O1         -4.7327   -0.2102    0.2323 O.2       1 <0>        -0.4484
     11 C10        -3.5946   -2.2549    0.0170 C.ar      1 <0>        -0.2690
     12 C11        -4.7561   -3.0387    0.0170 C.ar      1 <0>         0.2244
     13 C12        -4.6504   -4.4123   -0.0941 C.ar      1 <0>        -0.2081
     14 C13        -3.3994   -5.0103   -0.2044 C.ar      1 <0>         0.2000
     15 C14        -2.2463   -4.2416   -0.2047 C.ar      1 <0>        -0.1854
     16 C15        -2.3316   -2.8618   -0.0952 C.ar      1 <0>         0.1876
     17 O2         -1.2182   -2.0992   -0.1003 O.3       1 <0>        -0.1970
     18 O3         -3.3070   -6.3605   -0.3125 O.3       1 <0>        -0.4866
     19 O4         -5.9758   -2.4535    0.1257 O.3       1 <0>        -0.4726
     20 O5         -2.4312    1.2810    0.2275 O.3       1 <0>        -0.4502
     21 O6          1.6480    2.6557    1.8815 O.3       1 <0>        -0.4836
     22 O7          3.5534    2.1101   -0.0273 O.3       1 <0>        -0.4861
     23 H1          0.7971   -1.0371   -1.7094 H         1 <0>         0.1379
     24 H2          2.9075    0.2221   -1.7176 H         1 <0>         0.1421
     25 H3         -0.5155    1.1988    1.7108 H         1 <0>         0.1429
     26 H4         -5.5413   -5.0229   -0.0948 H         1 <0>         0.1515
     27 H5         -1.2805   -4.7174   -0.2903 H         1 <0>         0.1559
     28 H6         -3.3257   -6.6843   -1.2235 H         1 <0>         0.4050
     29 H7         -6.3751   -2.2160   -0.7224 H         1 <0>         0.4036
     30 H8         -3.3120    1.6729    0.3033 H         1 <0>         0.4079
     31 H9          1.3508    3.5370    1.6166 H         1 <0>         0.3905
     32 H10         3.5287    2.9137   -0.5647 H         1 <0>         0.3924
@<TRIPOS>BOND
     1    1    6 ar
     2    1    2 ar
     3    1   23 1
     4    2    3 ar
     5    2   24 1
     6    3    4 ar
     7    3   22 1
     8    4    5 ar
     9    4   21 1
    10    5    6 ar
    11    5   25 1
    12    6    7 1
    13    7   17 1
    14    7    8 2
    15    8    9 1
    16    8   20 1
    17    9   10 2
    18    9   11 1
    19   11   16 ar
    20   11   12 ar
    21   12   13 ar
    22   12   19 1
    23   13   14 ar
    24   13   26 1
    25   14   15 ar
    26   14   18 1
    27   15   16 ar
    28   15   27 1
    29   16   17 1
    30   18   28 1
    31   19   29 1
    32   20   30 1
    33   21   31 1
    34   22   32 1
@<TRIPOS>MOLECULE
ZINC03869685
   31    33     0     0     0
SMALL
USER_CHARGES

@<TRIPOS>ATOM
      1 C1          0.1390    1.1246   -0.8120 C.ar      1 <0>        -0.0626
      2 C2          1.3229    1.8301   -0.8179 C.ar      1 <0>        -0.1333
      3 C3          2.3812    1.4233   -0.0172 C.ar      1 <0>         0.0878
      4 C4          2.2522    0.2984    0.7970 C.ar      1 <0>         0.0757
      5 C5          1.0694   -0.4139    0.8086 C.ar      1 <0>        -0.0997
      6 C6          0.0021   -0.0041    0.0020 C.ar      1 <0>        -0.0194
      7 C7         -1.2620   -0.7597    0.0100 C.2       1 <0>         0.1007
      8 C8         -2.4587   -0.0763    0.1245 C.2       1 <0>        -0.0038
      9 C9         -3.6655   -0.7872    0.1324 C.2       1 <0>         0.3349
     10 C10        -3.6167   -2.1939    0.0219 C.2       1 <0>        -0.3331
     11 C11        -4.8018   -2.9593    0.0240 C.2       1 <0>         0.2664
     12 C12        -4.7326   -4.3182   -0.0844 C.2       1 <0>        -0.3749
     13 C13        -3.4871   -4.9570   -0.1979 C.2       1 <0>         0.3648
     14 O1         -3.4307   -6.2860   -0.3033 O.2       1 <0>        -0.6598
     15 C14        -2.3054   -4.2086   -0.2016 C.2       1 <0>        -0.3143
     16 C15        -2.3616   -2.8325   -0.0921 C.2       1 <0>         0.2118
     17 O2         -1.2290   -2.0988   -0.0996 O.3       1 <0>        -0.2018
     18 O3         -6.0073   -2.3463    0.1339 O.3       1 <0>        -0.4482
     19 O4         -4.8484   -0.1420    0.2437 O.3       1 <0>        -0.5747
     20 O5         -2.4638    1.2803    0.2294 O.3       1 <0>        -0.4649
     21 O6          3.2919   -0.0973    1.5794 O.3       1 <0>        -0.4856
     22 O7          3.5458    2.1225   -0.0269 O.3       1 <0>        -0.4881
     23 H1         -0.6843    1.4460   -1.4327 H         1 <0>         0.1397
     24 H2          1.4276    2.7014   -1.4473 H         1 <0>         0.1381
     25 H3          0.9685   -1.2854    1.4384 H         1 <0>         0.1410
     26 H4         -5.6395   -4.9047   -0.0825 H         1 <0>         0.1180
     27 H5         -1.3506   -4.7057   -0.2895 H         1 <0>         0.1230
     28 H6         -6.7597   -2.9537    0.1258 H         1 <0>         0.3847
     29 H7         -3.3475    1.6656    0.3047 H         1 <0>         0.4058
     30 H8          3.2925    0.2977    2.4620 H         1 <0>         0.3855
     31 H9          3.5825    2.8346    0.6263 H         1 <0>         0.3863
@<TRIPOS>BOND
     1    1    6 ar
     2    1    2 ar
     3    1   23 1
     4    2    3 ar
     5    2   24 1
     6    3    4 ar
     7    3   22 1
     8    4    5 ar
     9    4   21 1
    10    5    6 ar
    11    5   25 1
    12    6    7 1
    13    7   17 1
    14    7    8 2
    15    8    9 1
    16    8   20 1
    17    9   10 2
    18    9   19 1
    19   10   16 1
    20   10   11 1
    21   11   12 2
    22   11   18 1
    23   12   13 1
    24   12   26 1
    25   13   14 2
    26   13   15 1
    27   15   16 2
    28   15   27 1
    29   16   17 1
    30   18   28 1
    31   20   29 1
    32   21   30 1
    33   22   31 1
@<TRIPOS>MOLECULE
ZINC06527999
   22    22     0     0     0
SMALL
USER_CHARGES

@<TRIPOS>ATOM
      1 C1         -0.0167    1.3782    0.0096 C.ar      1 <0>        -0.0115
      2 C2          1.1707    2.0857    0.0021 C.ar      1 <0>        -0.1129
      3 C3          2.3778    1.4105   -0.0131 C.ar      1 <0>        -0.0400
      4 C4          2.3961    0.0274   -0.0207 C.ar      1 <0>        -0.1130
      5 C5          1.2082   -0.6793   -0.0132 C.ar      1 <0>        -0.0114
      6 C6          0.0021   -0.0041    0.0020 C.ar      1 <0>        -0.6247
      7 S1         -1.5119   -0.9055    0.0117 S.o2      1 <0>         2.6508
      8 O1         -1.2185   -2.1862    0.5528 O.2       1 <0>        -0.9839
      9 O2         -2.4926   -0.0462    0.5765 O.2       1 <0>        -0.9839
     10 N1         -1.9477   -1.1475   -1.5675 N.2       1 <0>        -1.0529
     11 C7         -3.0425   -1.7962   -1.8494 C.2       1 <0>         0.7508
     12 N2         -3.8355   -2.2795   -0.8356 N.pl3     1 <0>        -0.8789
     13 N3         -3.4044   -1.9971   -3.1604 N.pl3     1 <0>        -0.8159
     14 Br1         4.0026    2.3779   -0.0240 Br        1 <0>        -0.0336
     15 H1         -0.9592    1.9053    0.0260 H         1 <0>         0.1504
     16 H2          1.1559    3.1656    0.0077 H         1 <0>         0.1452
     17 H3          3.3384   -0.5003   -0.0329 H         1 <0>         0.1452
     18 H4          1.2224   -1.7592   -0.0191 H         1 <0>         0.1504
     19 H5         -3.5802   -2.1377    0.0894 H         1 <0>         0.4126
     20 H6         -4.6503   -2.7622   -1.0454 H         1 <0>         0.4146
     21 H7         -2.8449   -1.6561   -3.8757 H         1 <0>         0.4302
     22 H8         -4.2191   -2.4798   -3.3702 H         1 <0>         0.4126
@<TRIPOS>BOND
     1    1    6 ar
     2    1    2 ar
     3    1   15 1
     4    2    3 ar
     5    2   16 1
     6    3    4 ar
     7    3   14 1
     8    4    5 ar
     9    4   17 1
    10    5    6 ar
    11    5   18 1
    12    6    7 1
    13    7    8 2
    14    7    9 2
    15    7   10 1
    16   10   11 2
    17   11   12 1
    18   11   13 1
    19   12   19 1
    20   12   20 1
    21   13   21 1
    22   13   22 1
@<TRIPOS>MOLECULE
ZINC03276773
   25    25     0     0     0
SMALL
USER_CHARGES

@<TRIPOS>ATOM
      1 C1         -0.0184    1.5028    0.0103 C.3       1 <0>        -0.1248
      2 C2          0.0021   -0.0041    0.0020 C.ar      1 <0>        -0.0303
      3 C3          0.0057   -0.6887   -1.1989 C.ar      1 <0>        -0.1437
      4 C4          0.0245   -2.0709   -1.2065 C.ar      1 <0>        -0.0142
      5 C5          0.0400   -2.7685   -0.0132 C.ar      1 <0>        -0.6422
      6 C6          0.0373   -2.0839    1.1877 C.ar      1 <0>        -0.0143
      7 C7          0.0229   -0.7016    1.1953 C.ar      1 <0>        -0.1437
      8 S1          0.0628   -4.5303   -0.0229 S.o2      1 <0>         2.6505
      9 O1         -0.4759   -4.9503    1.2232 O.2       1 <0>        -0.9886
     10 O2         -0.4897   -4.9367   -1.2674 O.2       1 <0>        -0.9886
     11 N1          1.6509   -4.9994   -0.0343 N.2       1 <0>        -1.0528
     12 C8          1.9561   -6.2666   -0.0428 C.2       1 <0>         0.7489
     13 N2          0.9595   -7.2137   -0.0424 N.pl3     1 <0>        -0.8795
     14 N3          3.2745   -6.6561   -0.0523 N.pl3     1 <0>        -0.8171
     15 H1          1.0042    1.8801    0.0026 H         1 <0>         0.0797
     16 H2         -0.5455    1.8639   -0.8728 H         1 <0>         0.0730
     17 H3         -0.5286    1.8543    0.9071 H         1 <0>         0.0730
     18 H4         -0.0064   -0.1436   -2.1312 H         1 <0>         0.1335
     19 H5          0.0266   -2.6057   -2.1448 H         1 <0>         0.1400
     20 H6          0.0491   -2.6289    2.1200 H         1 <0>         0.1400
     21 H7          0.0245   -0.1667    2.1335 H         1 <0>         0.1335
     22 H8          0.0293   -6.9389   -0.0358 H         1 <0>         0.4125
     23 H9          1.1866   -8.1567   -0.0488 H         1 <0>         0.4137
     24 H10         3.9776   -5.9878   -0.0525 H         1 <0>         0.4297
     25 H11         3.5016   -7.5991   -0.0586 H         1 <0>         0.4119
@<TRIPOS>BOND
     1    1    2 1
     2    1   15 1
     3    1   16 1
     4    1   17 1
     5    2    7 ar
     6    2    3 ar
     7    3    4 ar
     8    3   18 1
     9    4    5 ar
    10    4   19 1
    11    5    6 ar
    12    5    8 1
    13    6    7 ar
    14    6   20 1
    15    7   21 1
    16    8    9 2
    17    8   10 2
    18    8   11 1
    19   11   12 2
    20   12   13 1
    21   12   14 1
    22   13   22 1
    23   13   23 1
    24   14   24 1
    25   14   25 1
@<TRIPOS>MOLECULE
ZINC13808146
   26    26     0     0     0
SMALL
USER_CHARGES

@<TRIPOS>ATOM
      1 C1         -0.0167    1.3779    0.0096 C.ar      1 <0>        -0.1302
      2 C2          1.1711    2.0854    0.0021 C.ar      1 <0>         0.0011
      3 C3          2.3773    1.4107   -0.0130 C.ar      1 <0>        -0.0665
      4 C4          2.3961    0.0283   -0.0201 C.ar      1 <0>         0.0471
      5 C5          1.2086   -0.6790   -0.0117 C.ar      1 <0>        -0.6857
      6 C6          0.0021   -0.0041    0.0020 C.ar      1 <0>         0.0232
      7 S1          1.2325   -2.4408   -0.0219 S.o2      1 <0>         2.7020
      8 O1         -0.0129   -2.8607   -0.5621 O.2       1 <0>        -0.9230
      9 O2          2.4774   -2.8268   -0.5880 O.2       1 <0>        -0.9235
     10 N1          1.2558   -2.9393    1.5571 N.pl3     1 <0>        -0.8958
     11 N2          0.2090   -2.5860    2.4187 N.pl3     1 <0>        -0.5547
     12 C7         -0.4782   -3.5615    3.1016 C.2       1 <0>         0.6388
     13 N3         -0.1559   -4.8150    2.9474 N.2       1 <0>        -0.8056
     14 N4         -1.5054   -3.2149    3.9471 N.pl3     1 <0>        -0.8409
     15 N5          3.6490    2.1682   -0.0221 N.pl3     1 <0>         0.0295
     16 O3          3.6326    3.3771   -0.0163 O.2       1 <0>        -0.1457
     17 O4          4.7040    1.5780   -0.0353 O.3       1 <0>        -0.1445
     18 H1         -0.9591    1.9051    0.0259 H         1 <0>         0.1631
     19 H2          1.1565    3.1653    0.0076 H         1 <0>         0.1659
     20 H3          3.3385   -0.4989   -0.0326 H         1 <0>         0.1725
     21 H4         -0.9258   -0.5567    0.0082 H         1 <0>         0.1635
     22 H5          1.9941   -3.4759    1.8855 H         1 <0>         0.4276
     23 H6         -0.0309   -1.6532    2.5335 H         1 <0>         0.4092
     24 H7         -1.7452   -2.2820    4.0618 H         1 <0>         0.4037
     25 H8         -1.9902   -3.9031    4.4289 H         1 <0>         0.4256
     26 H9          0.5689   -5.0596    2.3509 H         1 <0>         0.3432
@<TRIPOS>BOND
     1    1    6 ar
     2    1    2 ar
     3    1   18 1
     4    2    3 ar
     5    2   19 1
     6    3    4 ar
     7    3   15 1
     8    4    5 ar
     9    4   20 1
    10    5    6 ar
    11    5    7 1
    12    6   21 1
    13    7    8 2
    14    7    9 2
    15    7   10 1
    16   10   11 1
    17   10   22 1
    18   11   12 1
    19   11   23 1
    20   12   13 2
    21   12   14 1
    22   13   26 1
    23   14   24 1
    24   14   25 1
    25   15   16 2
    26   15   17 1
@<TRIPOS>MOLECULE
ZINC13808146
   27    27     0     0     0
SMALL
USER_CHARGES

@<TRIPOS>ATOM
      1 C1         -0.0167    1.3779    0.0096 C.ar      1 <0>        -0.1232
      2 C2          1.1711    2.0854    0.0021 C.ar      1 <0>         0.0110
      3 C3          2.3773    1.4107   -0.0130 C.ar      1 <0>        -0.0598
      4 C4          2.3961    0.0283   -0.0201 C.ar      1 <0>         0.0486
      5 C5          1.2086   -0.6790   -0.0117 C.ar      1 <0>        -0.6962
      6 C6          0.0021   -0.0041    0.0020 C.ar      1 <0>         0.0107
      7 S1          1.2325   -2.4408   -0.0219 S.o2      1 <0>         2.6871
      8 O1         -0.0129   -2.8607   -0.5621 O.2       1 <0>        -0.9012
      9 O2          2.4774   -2.8268   -0.5880 O.2       1 <0>        -0.8837
     10 N1          1.2558   -2.9393    1.5571 N.pl3     1 <0>        -0.9120
     11 N2          0.2090   -2.5860    2.4187 N.pl3     1 <0>        -0.4294
     12 C7          0.2272   -2.9771    3.6573 C.cat     1 <0>         0.7416
     13 N3          1.2838   -3.7450    4.1272 N.pl3     1 <0>        -0.8059
     14 N4         -0.8099   -2.6271    4.5109 N.pl3     1 <0>        -0.7994
     15 N5          3.6490    2.1682   -0.0221 N.pl3     1 <0>         0.0234
     16 O3          3.6326    3.3771   -0.0163 O.2       1 <0>        -0.1329
     17 O4          4.7040    1.5780   -0.0353 O.3       1 <0>        -0.1378
     18 H1         -0.9591    1.9051    0.0259 H         1 <0>         0.1680
     19 H2          1.1565    3.1653    0.0076 H         1 <0>         0.1718
     20 H3          3.3385   -0.4989   -0.0326 H         1 <0>         0.1756
     21 H4         -0.9258   -0.5567    0.0082 H         1 <0>         0.1630
     22 H5         -1.5482   -2.0905    4.1826 H         1 <0>         0.4419
     23 H6         -0.7963   -2.9191    5.4358 H         1 <0>         0.4479
     24 H7          2.0085   -3.9895    3.5307 H         1 <0>         0.4350
     25 H8          1.2974   -4.0370    5.0521 H         1 <0>         0.4464
     26 H9         -0.5293   -2.0495    2.0904 H         1 <0>         0.4639
     27 H10         1.9941   -3.4759    1.8855 H         1 <0>         0.4455
@<TRIPOS>BOND
     1    1    6 ar
     2    1    2 ar
     3    1   18 1
     4    2    3 ar
     5    2   19 1
     6    3    4 ar
     7    3   15 1
     8    4    5 ar
     9    4   20 1
    10    5    6 ar
    11    5    7 1
    12    6   21 1
    13    7    8 2
    14    7    9 2
    15    7   10 1
    16   10   11 1
    17   10   27 1
    18   11   12 2
    19   11   26 1
    20   12   13 1
    21   12   14 1
    22   13   24 1
    23   13   25 1
    24   14   22 1
    25   14   23 1
    26   15   16 2
    27   15   17 1
@<TRIPOS>MOLECULE
ZINC13808146
   26    26     0     0     0
SMALL
USER_CHARGES

@<TRIPOS>ATOM
      1 C1         -0.0167    1.3779    0.0096 C.ar      1 <0>        -0.1364
      2 C2          1.1711    2.0854    0.0021 C.ar      1 <0>        -0.0115
      3 C3          2.3773    1.4107   -0.0130 C.ar      1 <0>        -0.0714
      4 C4          2.3961    0.0283   -0.0201 C.ar      1 <0>         0.0432
      5 C5          1.2086   -0.6790   -0.0117 C.ar      1 <0>        -0.6196
      6 C6          0.0021   -0.0041    0.0020 C.ar      1 <0>         0.0265
      7 S1          1.2325   -2.4408   -0.0219 S.o2      1 <0>         2.6039
      8 O1         -0.0129   -2.8607   -0.5621 O.2       1 <0>        -1.0096
      9 O2          2.4774   -2.8268   -0.5880 O.2       1 <0>        -1.0079
     10 N1          1.2558   -2.9393    1.5571 N.2       1 <0>        -0.9418
     11 N2          1.2775   -4.3071    1.8596 N.pl3     1 <0>        -0.3977
     12 C7          1.2958   -4.6981    3.0982 C.cat     1 <0>         0.7079
     13 N3          1.2937   -3.7608    4.1220 N.pl3     1 <0>        -0.8136
     14 N4          1.3173   -6.0533    3.3979 N.pl3     1 <0>        -0.8501
     15 N5          3.6490    2.1682   -0.0221 N.pl3     1 <0>         0.0338
     16 O3          3.6326    3.3771   -0.0163 O.2       1 <0>        -0.1550
     17 O4          4.7040    1.5780   -0.0353 O.3       1 <0>        -0.1513
     18 H1         -0.9591    1.9051    0.0259 H         1 <0>         0.1573
     19 H2          1.1565    3.1653    0.0076 H         1 <0>         0.1606
     20 H3          3.3385   -0.4989   -0.0326 H         1 <0>         0.1679
     21 H4         -0.9258   -0.5567    0.0082 H         1 <0>         0.1589
     22 H5          1.3188   -6.7083    2.6825 H         1 <0>         0.4243
     23 H6          1.3310   -6.3453    4.3228 H         1 <0>         0.4274
     24 H7          1.2786   -2.8138    3.9126 H         1 <0>         0.4406
     25 H8          1.3073   -4.0528    5.0469 H         1 <0>         0.4163
     26 H9          1.2790   -4.9621    1.1442 H         1 <0>         0.3975
@<TRIPOS>BOND
     1    1    6 ar
     2    1    2 ar
     3    1   18 1
     4    2    3 ar
     5    2   19 1
     6    3    4 ar
     7    3   15 1
     8    4    5 ar
     9    4   20 1
    10    5    6 ar
    11    5    7 1
    12    6   21 1
    13    7    8 2
    14    7    9 2
    15    7   10 1
    16   10   11 1
    17   11   12 2
    18   11   26 1
    19   12   13 1
    20   12   14 1
    21   13   24 1
    22   13   25 1
    23   14   22 1
    24   14   23 1
    25   15   16 2
    26   15   17 1
@<TRIPOS>MOLECULE
ZINC13808171
   38    39     0     0     0
SMALL
USER_CHARGES

@<TRIPOS>ATOM
      1 C1         -1.4070    1.5521    0.2056 C.3       1 <0>         0.1136
      2 N1         -1.1754    0.1057    0.1870 N.pl3     1 <0>        -0.6883
      3 C2         -1.2031   -0.6568    1.4376 C.3       1 <0>         0.1144
      4 C3         -0.9288   -0.5448   -1.0201 C.ar      1 <0>         0.1989
      5 C4          0.3626   -0.6895   -1.4813 C.ar      1 <0>        -0.1321
      6 C5          0.6196   -1.3379   -2.6852 C.ar      1 <0>        -0.0718
      7 C6         -0.3933   -1.8461   -3.4403 C.ar      1 <0>        -0.1451
      8 C7         -1.7238   -1.7199   -3.0062 C.ar      1 <0>         0.0370
      9 C8         -1.9980   -1.0668   -1.7792 C.ar      1 <0>        -0.0832
     10 C9         -3.3272   -0.9460   -1.3446 C.ar      1 <0>        -0.0247
     11 C10        -4.3338   -1.4613   -2.1029 C.ar      1 <0>        -0.1551
     12 C11        -4.0647   -2.1092   -3.3070 C.ar      1 <0>         0.0173
     13 C12        -2.7893   -2.2343   -3.7653 C.ar      1 <0>        -0.6817
     14 S1         -2.4734   -3.0560   -5.2916 S.o2      1 <0>         2.6994
     15 O1         -3.7299   -3.5092   -5.7765 O.2       1 <0>        -0.9419
     16 O2         -1.6296   -2.1982   -6.0476 O.2       1 <0>        -0.9358
     17 N2         -1.5841   -4.4091   -4.9445 N.pl3     1 <0>        -0.8780
     18 N3         -2.0935   -5.3764   -4.0684 N.pl3     1 <0>        -0.5039
     19 C13        -2.1975   -6.6856   -4.4751 C.2       1 <0>         0.6359
     20 N4         -1.8221   -7.0268   -5.6758 N.2       1 <0>        -0.8101
     21 N5         -2.6974   -7.6349   -3.6154 N.pl3     1 <0>        -0.8913
     22 H1         -0.4564    2.0707    0.3301 H         1 <0>         0.0389
     23 H2         -1.8678    1.8585   -0.7335 H         1 <0>         0.0557
     24 H3         -2.0691    1.8034    1.0342 H         1 <0>         0.0615
     25 H4         -1.4089    0.0169    2.2694 H         1 <0>         0.0697
     26 H5         -1.9836   -1.4157    1.3832 H         1 <0>         0.0409
     27 H6         -0.2376   -1.1389    1.5908 H         1 <0>         0.0436
     28 H7          1.1839   -0.2947   -0.9016 H         1 <0>         0.1293
     29 H8          1.6391   -1.4395   -3.0267 H         1 <0>         0.1334
     30 H9         -0.1743   -2.3456   -4.3725 H         1 <0>         0.1320
     31 H10        -3.5503   -0.4470   -0.4131 H         1 <0>         0.1355
     32 H11        -5.3556   -1.3669   -1.7662 H         1 <0>         0.1361
     33 H12        -4.8811   -2.5099   -3.8895 H         1 <0>         0.1468
     34 H13        -0.7104   -4.5319   -5.3477 H         1 <0>         0.4287
     35 H14        -1.8954   -7.9504   -5.9628 H         1 <0>         0.3438
     36 H15        -2.9767   -7.3810   -2.7219 H         1 <0>         0.3913
     37 H16        -2.7707   -8.5585   -3.9024 H         1 <0>         0.4138
     38 H17        -2.3728   -5.1225   -3.1749 H         1 <0>         0.4255
@<TRIPOS>BOND
     1    1    2 1
     2    1   22 1
     3    1   23 1
     4    1   24 1
     5    2    3 1
     6    2    4 1
     7    3   25 1
     8    3   26 1
     9    3   27 1
    10    4    9 ar
    11    4    5 ar
    12    5    6 ar
    13    5   28 1
    14    6    7 ar
    15    6   29 1
    16    7    8 ar
    17    7   30 1
    18    8   13 ar
    19    8    9 ar
    20    9   10 ar
    21   10   11 ar
    22   10   31 1
    23   11   12 ar
    24   11   32 1
    25   12   13 ar
    26   12   33 1
    27   13   14 1
    28   14   15 2
    29   14   16 2
    30   14   17 1
    31   17   18 1
    32   17   34 1
    33   18   19 1
    34   18   38 1
    35   19   20 2
    36   19   21 1
    37   20   35 1
    38   21   36 1
    39   21   37 1
@<TRIPOS>MOLECULE
ZINC13808171
   38    39     0     0     0
SMALL
USER_CHARGES

@<TRIPOS>ATOM
      1 C1         -0.0178    1.4608    0.0101 C.3       1 <0>         0.1159
      2 N1          0.0021   -0.0041    0.0020 N.pl3     1 <0>        -0.6862
      3 C2          1.2806   -0.7192   -0.0140 C.3       1 <0>         0.1151
      4 C3         -1.1948   -0.7170    0.0096 C.ar      1 <0>         0.1806
      5 C4         -1.8010   -1.0716   -1.1770 C.ar      1 <0>        -0.1266
      6 C5         -2.9961   -1.7840   -1.1803 C.ar      1 <0>        -0.0965
      7 C6         -3.5998   -2.1499   -0.0157 C.ar      1 <0>        -0.1085
      8 C7         -3.0149   -1.8082    1.2154 C.ar      1 <0>         0.0348
      9 C8         -1.7950   -1.0880    1.2320 C.ar      1 <0>        -0.0804
     10 C9         -1.2096   -0.7518    2.4626 C.ar      1 <0>        -0.0325
     11 C10        -1.8169   -1.1258    3.6224 C.ar      1 <0>        -0.1557
     12 C11        -3.0136   -1.8396    3.6073 C.ar      1 <0>         0.0043
     13 C12        -3.6159   -2.1723    2.4329 C.ar      1 <0>        -0.6635
     14 S1         -5.1299   -3.0736    2.4385 S.o2      1 <0>         2.7280
     15 O1         -4.9589   -4.1605    1.5393 O.2       1 <0>        -0.9417
     16 O2         -5.4859   -3.2611    3.8013 O.2       1 <0>        -0.9608
     17 N2         -6.2874   -2.0906    1.7779 N.pl3     1 <0>        -0.9546
     18 N3         -6.1401   -1.6179    0.4673 N.2       1 <0>        -0.3847
     19 C13        -7.0480   -0.8468   -0.0508 C.2       1 <0>         0.5982
     20 N4         -8.1640   -0.4911    0.6940 N.pl3     1 <0>        -0.8886
     21 N5         -6.9022   -0.3785   -1.3493 N.pl3     1 <0>        -0.8428
     22 H1          1.0048    1.8381    0.0023 H         1 <0>         0.0673
     23 H2         -0.5450    1.8219   -0.8730 H         1 <0>         0.0419
     24 H3         -0.5280    1.8123    0.9069 H         1 <0>         0.0392
     25 H4          1.6074   -0.9021    1.0096 H         1 <0>         0.0337
     26 H5          1.1583   -1.6705   -0.5318 H         1 <0>         0.0564
     27 H6          2.0272   -0.1171   -0.5318 H         1 <0>         0.0601
     28 H7         -1.3430   -0.7929   -2.1146 H         1 <0>         0.1235
     29 H8         -3.4528   -2.0509   -2.1219 H         1 <0>         0.1271
     30 H9         -4.5276   -2.7021   -0.0384 H         1 <0>         0.1627
     31 H10        -0.2819   -0.1995    2.4893 H         1 <0>         0.1316
     32 H11        -1.3643   -0.8658    4.5679 H         1 <0>         0.1320
     33 H12        -3.4748   -2.1250    4.5413 H         1 <0>         0.1427
     34 H13        -7.0672   -1.8420    2.2984 H         1 <0>         0.3893
     35 H14        -6.1223   -0.6270   -1.8698 H         1 <0>         0.4200
     36 H15        -7.5801    0.1974   -1.7363 H         1 <0>         0.4094
     37 H16        -8.2660   -0.8184    1.6015 H         1 <0>         0.4079
     38 H17        -8.8420    0.0847    0.3071 H         1 <0>         0.4015
@<TRIPOS>BOND
     1    1    2 1
     2    1   22 1
     3    1   23 1
     4    1   24 1
     5    2    3 1
     6    2    4 1
     7    3   25 1
     8    3   26 1
     9    3   27 1
    10    4    9 ar
    11    4    5 ar
    12    5    6 ar
    13    5   28 1
    14    6    7 ar
    15    6   29 1
    16    7    8 ar
    17    7   30 1
    18    8   13 ar
    19    8    9 ar
    20    9   10 ar
    21   10   11 ar
    22   10   31 1
    23   11   12 ar
    24   11   32 1
    25   12   13 ar
    26   12   33 1
    27   13   14 1
    28   14   15 2
    29   14   16 2
    30   14   17 1
    31   17   18 1
    32   17   34 1
    33   18   19 2
    34   19   20 1
    35   19   21 1
    36   20   37 1
    37   20   38 1
    38   21   35 1
    39   21   36 1
@<TRIPOS>MOLECULE
ZINC13808035
   22    22     0     0     0
SMALL
USER_CHARGES

@<TRIPOS>ATOM
      1 C1         -0.0167    1.3782    0.0096 C.ar      1 <0>        -0.0049
      2 C2          1.1706    2.0858    0.0021 C.ar      1 <0>        -0.1325
      3 C3          2.3780    1.4104   -0.0130 C.ar      1 <0>         0.0166
      4 C4          2.3961    0.0270   -0.0206 C.ar      1 <0>        -0.1325
      5 C5          1.2082   -0.6795   -0.0130 C.ar      1 <0>        -0.0048
      6 C6          0.0021   -0.0041    0.0020 C.ar      1 <0>        -0.6356
      7 S1         -1.5119   -0.9054    0.0122 S.o2      1 <0>         2.6517
      8 O1         -1.2185   -2.1862    0.5533 O.2       1 <0>        -0.9846
      9 O2         -2.4924   -0.0460    0.5773 O.2       1 <0>        -0.9846
     10 N1         -1.9483   -1.1474   -1.5669 N.2       1 <0>        -1.0529
     11 C7         -3.0432   -1.7960   -1.8484 C.2       1 <0>         0.7506
     12 N2         -3.8359   -2.2793   -0.8344 N.pl3     1 <0>        -0.8790
     13 N3         -3.4055   -1.9969   -3.1593 N.pl3     1 <0>        -0.8161
     14 Cl1         3.8696    2.2984   -0.0231 Cl        1 <0>        -0.0537
     15 H1         -0.9592    1.9053    0.0259 H         1 <0>         0.1506
     16 H2          1.1558    3.1656    0.0076 H         1 <0>         0.1458
     17 H3          3.3383   -0.5007   -0.0327 H         1 <0>         0.1458
     18 H4          1.2222   -1.7594   -0.0193 H         1 <0>         0.1506
     19 H5         -3.5803   -2.1375    0.0906 H         1 <0>         0.4126
     20 H6         -4.6508   -2.7620   -1.0438 H         1 <0>         0.4144
     21 H7         -2.8462   -1.6559   -3.8747 H         1 <0>         0.4301
     22 H8         -4.2204   -2.4796   -3.3688 H         1 <0>         0.4125
@<TRIPOS>BOND
     1    1    6 ar
     2    1    2 ar
     3    1   15 1
     4    2    3 ar
     5    2   16 1
     6    3    4 ar
     7    3   14 1
     8    4    5 ar
     9    4   17 1
    10    5    6 ar
    11    5   18 1
    12    6    7 1
    13    7    8 2
    14    7    9 2
    15    7   10 1
    16   10   11 2
    17   11   12 1
    18   11   13 1
    19   12   19 1
    20   12   20 1
    21   13   21 1
    22   13   22 1
@<TRIPOS>MOLECULE
ZINC06405865
   28    28     0     0     0
SMALL
USER_CHARGES

@<TRIPOS>ATOM
      1 C1         -0.0173    1.4248    0.0099 C.3       1 <0>         0.0211
      2 O1          0.0021   -0.0041    0.0020 O.3       1 <0>        -0.3094
      3 C2          0.6258   -0.6184    1.0415 C.ar      1 <0>         0.1869
      4 C3          1.2022    0.1384    2.0513 C.ar      1 <0>        -0.2293
      5 C4          1.8353   -0.4884    3.1070 C.ar      1 <0>         0.0261
      6 C5          1.8951   -1.8688    3.1577 C.ar      1 <0>        -0.7213
      7 C6          1.3218   -2.6253    2.1523 C.ar      1 <0>         0.0147
      8 C7          0.6822   -2.0034    1.0976 C.ar      1 <0>        -0.1711
      9 S1          2.7038   -2.6653    4.5054 S.o2      1 <0>         2.7023
     10 O2          3.0980   -3.9492    4.0411 O.2       1 <0>        -0.9410
     11 O3          3.6322   -1.7279    5.0333 O.2       1 <0>        -0.9414
     12 N1          1.5645   -2.9163    5.6808 N.pl3     1 <0>        -0.8793
     13 N2          0.4366   -3.7010    5.4070 N.pl3     1 <0>        -0.5062
     14 C8          0.1392   -4.7796    6.2059 C.2       1 <0>         0.6353
     15 N3          0.9066   -5.0722    7.2180 N.2       1 <0>        -0.8102
     16 N4         -0.9676   -5.5496    5.9372 N.pl3     1 <0>        -0.8914
     17 H1          1.0053    1.8021    0.0021 H         1 <0>         0.0621
     18 H2         -0.5445    1.7859   -0.8732 H         1 <0>         0.1073
     19 H3         -0.5275    1.7763    0.9067 H         1 <0>         0.0617
     20 H4          1.1564    1.2167    2.0118 H         1 <0>         0.1408
     21 H5          2.2842    0.1003    3.8934 H         1 <0>         0.1461
     22 H6          1.3701   -3.7035    2.1940 H         1 <0>         0.1491
     23 H7          0.2307   -2.5948    0.3148 H         1 <0>         0.1437
     24 H8          1.6781   -2.5201    6.5589 H         1 <0>         0.4289
     25 H9          0.6967   -5.8332    7.7817 H         1 <0>         0.3441
     26 H10        -1.5387   -5.3318    5.1839 H         1 <0>         0.3914
     27 H11        -1.1775   -6.3106    6.5008 H         1 <0>         0.4140
     28 H12        -0.1344   -3.4832    4.6537 H         1 <0>         0.4249
@<TRIPOS>BOND
     1    1    2 1
     2    1   17 1
     3    1   18 1
     4    1   19 1
     5    2    3 1
     6    3    8 ar
     7    3    4 ar
     8    4    5 ar
     9    4   20 1
    10    5    6 ar
    11    5   21 1
    12    6    7 ar
    13    6    9 1
    14    7    8 ar
    15    7   22 1
    16    8   23 1
    17    9   10 2
    18    9   11 2
    19    9   12 1
    20   12   13 1
    21   12   24 1
    22   13   14 1
    23   13   28 1
    24   14   15 2
    25   14   16 1
    26   15   25 1
    27   16   26 1
    28   16   27 1
@<TRIPOS>MOLECULE
ZINC06405865
   28    28     0     0     0
SMALL
USER_CHARGES

@<TRIPOS>ATOM
      1 C1         -0.0173    1.4248    0.0099 C.3       1 <0>         0.0226
      2 O1          0.0021   -0.0041    0.0020 O.3       1 <0>        -0.3114
      3 C2          0.6058   -0.6071   -1.0557 C.ar      1 <0>         0.1817
      4 C3          1.1730    0.1607   -2.0624 C.ar      1 <0>        -0.2329
      5 C4          1.7865   -0.4547   -3.1363 C.ar      1 <0>         0.0186
      6 C5          1.8352   -1.8346   -3.2086 C.ar      1 <0>        -0.7041
      7 C6          1.2702   -2.6021   -2.2068 C.ar      1 <0>         0.0336
      8 C7          0.6609   -1.9915   -1.1277 C.ar      1 <0>        -0.1746
      9 S1          2.6179   -2.6165   -4.5800 S.o2      1 <0>         2.7309
     10 O2          2.0512   -3.9154   -4.6847 O.2       1 <0>        -0.9457
     11 O3          2.5875   -1.6833   -5.6512 O.2       1 <0>        -0.9614
     12 N1          4.2112   -2.8262   -4.1801 N.pl3     1 <0>        -0.9551
     13 N2          4.5574   -3.5985   -3.0636 N.2       1 <0>        -0.3828
     14 C8          5.8072   -3.7630   -2.7500 C.2       1 <0>         0.5941
     15 N3          6.7996   -3.1735   -3.5210 N.pl3     1 <0>        -0.8898
     16 N4          6.1502   -4.5282   -1.6438 N.pl3     1 <0>        -0.8437
     17 H1          1.0053    1.8021    0.0021 H         1 <0>         0.0595
     18 H2         -0.5445    1.7859   -0.8732 H         1 <0>         0.0605
     19 H3         -0.5275    1.7763    0.9067 H         1 <0>         0.1054
     20 H4          1.1347    1.2385   -2.0068 H         1 <0>         0.1370
     21 H5          2.2283    0.1425   -3.9203 H         1 <0>         0.1407
     22 H6          1.3092   -3.6798   -2.2657 H         1 <0>         0.1500
     23 H7          0.2237   -2.5913   -0.3432 H         1 <0>         0.1411
     24 H8          4.9047   -2.4143   -4.7188 H         1 <0>         0.3870
     25 H9          5.4567   -4.9401   -1.1051 H         1 <0>         0.4206
     26 H10         7.0835   -4.6510   -1.4096 H         1 <0>         0.4093
     27 H11         6.5599   -2.6388   -4.2940 H         1 <0>         0.4075
     28 H12         7.7329   -3.2963   -3.2868 H         1 <0>         0.4014
@<TRIPOS>BOND
     1    1    2 1
     2    1   17 1
     3    1   18 1
     4    1   19 1
     5    2    3 1
     6    3    8 ar
     7    3    4 ar
     8    4    5 ar
     9    4   20 1
    10    5    6 ar
    11    5   21 1
    12    6    7 ar
    13    6    9 1
    14    7    8 ar
    15    7   22 1
    16    8   23 1
    17    9   10 2
    18    9   11 2
    19    9   12 1
    20   12   13 1
    21   12   24 1
    22   13   14 2
    23   14   15 1
    24   14   16 1
    25   15   27 1
    26   15   28 1
    27   16   25 1
    28   16   26 1
@<TRIPOS>MOLECULE
ZINC06792642
   30    31     0     0     0
SMALL
USER_CHARGES

@<TRIPOS>ATOM
      1 C1         -0.0173    1.4248    0.0099 C.3       1 <0>         0.0502
      2 O1          0.0021   -0.0041    0.0020 O.3       1 <0>        -0.3067
      3 C2         -1.1931   -0.6337    0.0100 C.2       1 <0>         0.6962
      4 N1         -1.2464   -2.0060    0.0032 N.pl3     1 <0>        -0.8424
      5 N2         -2.2937    0.0600    0.0243 N.2       1 <0>        -1.0484
      6 S1         -3.7588   -0.7119    0.0341 S.o2      1 <0>         2.6468
      7 O2         -3.8733   -1.3818   -1.2138 O.2       1 <0>        -0.9808
      8 O3         -3.8495   -1.3952    1.2767 O.2       1 <0>        -0.9781
      9 C3         -5.0041    0.5345    0.0527 C.ar      1 <0>        -0.6315
     10 C4         -5.4737    1.0176    1.2728 C.ar      1 <0>        -0.0418
     11 C5         -6.4350    1.9796    1.3224 C.ar      1 <0>        -0.1181
     12 C6         -6.9641    2.4962    0.1273 C.ar      1 <0>        -0.0118
     13 C7         -7.9574    3.4904    0.1384 C.ar      1 <0>        -0.1192
     14 C8         -8.4460    3.9672   -1.0388 C.ar      1 <0>        -0.0933
     15 C9         -7.9762    3.4844   -2.2590 C.ar      1 <0>        -0.1225
     16 C10        -7.0152    2.5220   -2.3085 C.ar      1 <0>        -0.0891
     17 C11        -6.4864    2.0052   -1.1133 C.ar      1 <0>        -0.0799
     18 C12        -5.4892    1.0150   -1.1246 C.ar      1 <0>         0.0206
     19 H1          1.0053    1.8021    0.0021 H         1 <0>         0.1089
     20 H2         -0.5445    1.7859   -0.8732 H         1 <0>         0.0736
     21 H3         -0.5275    1.7763    0.9067 H         1 <0>         0.0740
     22 H4         -0.4258   -2.5232   -0.0074 H         1 <0>         0.4241
     23 H5         -5.0687    0.6224    2.1927 H         1 <0>         0.1400
     24 H6         -6.7898    2.3439    2.2753 H         1 <0>         0.1378
     25 H7         -8.3312    3.8738    1.0764 H         1 <0>         0.1332
     26 H8         -9.2095    4.7310   -1.0275 H         1 <0>         0.1289
     27 H9         -8.3812    3.8795   -3.1789 H         1 <0>         0.1293
     28 H10        -6.6610    2.1571   -3.2613 H         1 <0>         0.1339
     29 H11        -5.1125    0.6346   -2.0625 H         1 <0>         0.1464
     30 H12        -2.1046   -2.4581    0.0090 H         1 <0>         0.4200
@<TRIPOS>BOND
     1    1    2 1
     2    1   19 1
     3    1   20 1
     4    1   21 1
     5    2    3 1
     6    3    4 1
     7    3    5 2
     8    4   22 1
     9    4   30 1
    10    5    6 1
    11    6    7 2
    12    6    8 2
    13    6    9 1
    14    9   18 ar
    15    9   10 ar
    16   10   11 ar
    17   10   23 1
    18   11   12 ar
    19   11   24 1
    20   12   17 ar
    21   12   13 ar
    22   13   14 ar
    23   13   25 1
    24   14   15 ar
    25   14   26 1
    26   15   16 ar
    27   15   27 1
    28   16   17 ar
    29   16   28 1
    30   17   18 ar
    31   18   29 1
@<TRIPOS>MOLECULE
ZINC13808049
   26    26     0     0     0
SMALL
USER_CHARGES

@<TRIPOS>ATOM
      1 C1         -0.0173    1.4248    0.0099 C.3       1 <0>         0.0219
      2 O1          0.0021   -0.0041    0.0020 O.3       1 <0>        -0.3107
      3 C2          0.6058   -0.6071   -1.0557 C.ar      1 <0>         0.1816
      4 C3          1.1730    0.1607   -2.0624 C.ar      1 <0>        -0.2306
      5 C4          1.7865   -0.4547   -3.1363 C.ar      1 <0>         0.0232
      6 C5          1.8352   -1.8346   -3.2086 C.ar      1 <0>        -0.6743
      7 C6          1.2702   -2.6021   -2.2068 C.ar      1 <0>         0.0205
      8 C7          0.6609   -1.9915   -1.1277 C.ar      1 <0>        -0.1726
      9 S1          2.6179   -2.6165   -4.5800 S.o2      1 <0>         2.6540
     10 O2          2.0512   -3.9154   -4.6847 O.2       1 <0>        -0.9888
     11 O3          2.5875   -1.6833   -5.6512 O.2       1 <0>        -0.9899
     12 N1          4.2112   -2.8262   -4.1801 N.2       1 <0>        -1.0532
     13 C8          5.0270   -3.3888   -5.0267 C.2       1 <0>         0.7488
     14 N2          4.5648   -3.8081   -6.2517 N.pl3     1 <0>        -0.8796
     15 N3          6.3497   -3.5629   -4.6948 N.pl3     1 <0>        -0.8175
     16 H1          1.0053    1.8021    0.0021 H         1 <0>         0.0608
     17 H2         -0.5445    1.7859   -0.8732 H         1 <0>         0.0607
     18 H3         -0.5275    1.7763    0.9067 H         1 <0>         0.1058
     19 H4          1.1347    1.2385   -2.0068 H         1 <0>         0.1393
     20 H5          2.2283    0.1425   -3.9203 H         1 <0>         0.1430
     21 H6          1.3092   -3.6798   -2.2657 H         1 <0>         0.1475
     22 H7          0.2237   -2.5913   -0.3432 H         1 <0>         0.1426
     23 H8          3.6315   -3.6853   -6.4860 H         1 <0>         0.4126
     24 H9          5.1719   -4.2268   -6.8818 H         1 <0>         0.4136
     25 H10         6.6759   -3.2670   -3.8305 H         1 <0>         0.4296
     26 H11         6.9569   -3.9816   -5.3248 H         1 <0>         0.4117
@<TRIPOS>BOND
     1    1    2 1
     2    1   16 1
     3    1   17 1
     4    1   18 1
     5    2    3 1
     6    3    8 ar
     7    3    4 ar
     8    4    5 ar
     9    4   19 1
    10    5    6 ar
    11    5   20 1
    12    6    7 ar
    13    6    9 1
    14    7    8 ar
    15    7   21 1
    16    8   22 1
    17    9   10 2
    18    9   11 2
    19    9   12 1
    20   12   13 2
    21   13   14 1
    22   13   15 1
    23   14   23 1
    24   14   24 1
    25   15   25 1
    26   15   26 1
@<TRIPOS>MOLECULE
ZINC03807246
   69    72     0     0     0
SMALL
USER_CHARGES

@<TRIPOS>ATOM
      1 C1         -1.4468    1.0204    1.5598 C.ar      1 <0>        -0.0881
      2 C2         -0.3637    1.8925    1.4651 C.ar      1 <0>        -0.1181
      3 C3          0.8927    1.4262    1.2278 C.ar      1 <0>        -0.0900
      4 C4          1.1047    0.0452    1.0760 C.ar      1 <0>        -0.0797
      5 C5          2.3875   -0.4736    0.8307 C.ar      1 <0>         0.0262
      6 C6          2.5549   -1.8168    0.6895 C.ar      1 <0>        -0.6802
      7 C7          1.4718   -2.6889    0.7846 C.ar      1 <0>        -0.0526
      8 C8          0.2154   -2.2225    1.0214 C.ar      1 <0>        -0.1132
      9 C9          0.0034   -0.8415    1.1728 C.ar      1 <0>        -0.0113
     10 C10        -1.2794   -0.3227    1.4182 C.ar      1 <0>        -0.1213
     11 S1          4.1649   -2.4631    0.3814 S.o2      1 <0>         2.6992
     12 O1          3.9829   -3.7195   -0.2570 O.2       1 <0>        -0.9555
     13 O2          4.9188   -1.4119   -0.2067 O.2       1 <0>        -0.9466
     14 N1          4.8569   -2.7758    1.8530 N.pl3     1 <0>        -1.1073
     15 C11         4.2874   -3.8049    2.7264 C.3       1 <0>         0.1000
     16 C12         5.2796   -4.1529    3.8059 C.2       1 <0>         0.5210
     17 O3          6.3564   -3.5961    3.8422 O.2       1 <0>        -0.5181
     18 N2          4.9704   -5.0829    4.7311 N.am      1 <0>        -0.7101
     19 C13         5.9349   -5.4212    5.7806 C.3       1 <0>         0.1339
     20 H1          6.9457   -5.3661    5.3765 H         1 <0>         0.1200
     21 C14         5.6637   -6.8402    6.2843 C.3       1 <0>        -0.1006
     22 C15         5.9436   -7.8272    5.1805 C.ar      1 <0>        -0.0118
     23 C16         4.9340   -8.1867    4.3055 C.ar      1 <0>        -0.1089
     24 C17         5.1837   -9.0901    3.2931 C.ar      1 <0>        -0.0513
     25 C18         6.4577   -9.6411    3.1524 C.ar      1 <0>        -0.1581
     26 C19         7.4717   -9.2742    4.0377 C.ar      1 <0>        -0.0513
     27 C20         7.2105   -8.3658    5.0428 C.ar      1 <0>        -0.1097
     28 C21         6.7323  -10.6110    2.0691 C.cat     1 <0>         0.6003
     29 N3          7.9491  -11.1351    1.9374 N.pl3     1 <0>        -0.7617
     30 N4          5.7625  -10.9596    1.2261 N.pl3     1 <0>        -0.7609
     31 C22         5.7967   -4.4477    6.9226 C.2       1 <0>         0.5048
     32 O4          4.7594   -3.8388    7.0782 O.2       1 <0>        -0.5232
     33 N5          6.8258   -4.2538    7.7710 N.am      1 <0>        -0.6053
     34 C23         8.1249   -4.8969    7.5315 C.3       1 <0>         0.1030
     35 C24         9.2160   -3.8216    7.5376 C.3       1 <0>        -0.1381
     36 C25         9.1384   -3.0292    8.8446 C.3       1 <0>        -0.1219
     37 C26         7.7772   -2.3367    8.9433 C.3       1 <0>        -0.1374
     38 C27         6.6716   -3.3904    8.9498 C.3       1 <0>         0.1098
     39 H2         -2.4330    1.4161    1.7529 H         1 <0>         0.1312
     40 H3         -0.5239    2.9542    1.5813 H         1 <0>         0.1317
     41 H4          1.7223    2.1139    1.1562 H         1 <0>         0.1355
     42 H5          3.2360    0.1901    0.7541 H         1 <0>         0.1473
     43 H6          1.6320   -3.7506    0.6683 H         1 <0>         0.1377
     44 H7         -0.6144   -2.9101    1.0922 H         1 <0>         0.1372
     45 H8         -2.1280   -0.9865    1.4944 H         1 <0>         0.1341
     46 H9          5.6393   -2.2776    2.1368 H         1 <0>         0.4304
     47 H10         3.3716   -3.4286    3.1822 H         1 <0>         0.1037
     48 H11         4.0618   -4.6953    2.1395 H         1 <0>         0.1122
     49 H12         4.1091   -5.5283    4.7021 H         1 <0>         0.4077
     50 H13         6.3108   -7.0536    7.1352 H         1 <0>         0.1102
     51 H14         4.6211   -6.9239    6.5908 H         1 <0>         0.1049
     52 H15         3.9482   -7.7594    4.4155 H         1 <0>         0.1479
     53 H16         4.3946   -9.3705    2.6111 H         1 <0>         0.1406
     54 H17         8.4599   -9.6975    3.9342 H         1 <0>         0.1397
     55 H18         7.9956   -8.0779    5.7263 H         1 <0>         0.1495
     56 H19         8.6556  -10.8812    2.5516 H         1 <0>         0.4441
     57 H20         4.8760  -10.5777    1.3220 H         1 <0>         0.4444
     58 H21         5.9424  -11.5953    0.5159 H         1 <0>         0.4343
     59 H22         8.3237   -5.6236    8.3192 H         1 <0>         0.0758
     60 H23         8.1115   -5.3983    6.5638 H         1 <0>         0.0802
     61 H24        10.1943   -4.2954    7.4570 H         1 <0>         0.0789
     62 H25         9.0671   -3.1474    6.6941 H         1 <0>         0.0710
     63 H26         9.2627   -3.7078    9.6886 H         1 <0>         0.0666
     64 H27         9.9294   -2.2794    8.8623 H         1 <0>         0.0702
     65 H28         7.7314   -1.7538    9.8632 H         1 <0>         0.0799
     66 H29         7.6419   -1.6766    8.0866 H         1 <0>         0.0676
     67 H30         5.6996   -2.8981    8.9176 H         1 <0>         0.0938
     68 H31         6.7492   -3.9915    9.8557 H         1 <0>         0.0720
     69 H32         8.1291  -11.7709    1.2273 H         1 <0>         0.4342
@<TRIPOS>BOND
     1    1   10 ar
     2    1    2 ar
     3    1   39 1
     4    2    3 ar
     5    2   40 1
     6    3    4 ar
     7    3   41 1
     8    4    9 ar
     9    4    5 ar
    10    5    6 ar
    11    5   42 1
    12    6    7 ar
    13    6   11 1
    14    7    8 ar
    15    7   43 1
    16    8    9 ar
    17    8   44 1
    18    9   10 ar
    19   10   45 1
    20   11   12 2
    21   11   13 2
    22   11   14 1
    23   14   15 1
    24   14   46 1
    25   15   16 1
    26   15   47 1
    27   15   48 1
    28   16   17 2
    29   16   18 am
    30   18   19 1
    31   18   49 1
    32   19   20 1
    33   19   21 1
    34   19   31 1
    35   21   22 1
    36   21   50 1
    37   21   51 1
    38   22   27 ar
    39   22   23 ar
    40   23   24 ar
    41   23   52 1
    42   24   25 ar
    43   24   53 1
    44   25   26 ar
    45   25   28 1
    46   26   27 ar
    47   26   54 1
    48   27   55 1
    49   28   29 2
    50   28   30 1
    51   29   56 1
    52   29   69 1
    53   30   57 1
    54   30   58 1
    55   31   32 2
    56   31   33 am
    57   33   38 1
    58   33   34 1
    59   34   35 1
    60   34   59 1
    61   34   60 1
    62   35   36 1
    63   35   61 1
    64   35   62 1
    65   36   37 1
    66   36   63 1
    67   36   64 1
    68   37   38 1
    69   37   65 1
    70   37   66 1
    71   38   67 1
    72   38   68 1
@<TRIPOS>MOLECULE
ZINC13808101
   26    26     0     0     0
SMALL
USER_CHARGES

@<TRIPOS>ATOM
      1 C1         -0.0173    1.4248    0.0099 C.3       1 <0>         0.0510
      2 O1          0.0021   -0.0041    0.0020 O.3       1 <0>        -0.3088
      3 C2          0.6022   -0.6035   -1.0494 C.2       1 <0>         0.6934
      4 N1          0.6561   -1.9740   -1.1195 N.pl3     1 <0>        -0.8434
      5 N2          1.1291    0.1175   -1.9956 N.2       1 <0>        -1.0489
      6 S1          1.8647   -0.6173   -3.2844 S.o2      1 <0>         2.6514
      7 O2          3.0131   -1.2798   -2.7731 O.2       1 <0>        -0.9861
      8 O3          0.8445   -1.3025   -3.9979 O.2       1 <0>        -0.9861
      9 C3          2.4515    0.6598   -4.3470 C.ar      1 <0>        -0.6931
     10 C4          1.6357    1.1529   -5.3488 C.ar      1 <0>         0.0304
     11 C5          2.0925    2.1539   -6.1835 C.ar      1 <0>        -0.2184
     12 C6          3.3730    2.6655   -6.0157 C.ar      1 <0>         0.2682
     13 C7          4.1899    2.1679   -5.0084 C.ar      1 <0>        -0.2184
     14 C8          3.7248    1.1708   -4.1737 C.ar      1 <0>         0.0303
     15 N3          3.8383    3.6776   -6.8583 N.pl3     1 <0>        -0.8663
     16 H1          1.0053    1.8021    0.0021 H         1 <0>         0.0733
     17 H2         -0.5445    1.7859   -0.8732 H         1 <0>         0.0733
     18 H3         -0.5275    1.7763    0.9067 H         1 <0>         0.1077
     19 H4          0.2633   -2.5116   -0.4141 H         1 <0>         0.4229
     20 H5          0.6403    0.7545   -5.4789 H         1 <0>         0.1391
     21 H6          1.4549    2.5383   -6.9659 H         1 <0>         0.1313
     22 H7          5.1861    2.5632   -4.8755 H         1 <0>         0.1312
     23 H8          4.3577    0.7866   -3.3875 H         1 <0>         0.1391
     24 H9          3.2671    4.0241   -7.5616 H         1 <0>         0.4034
     25 H10         4.7327    4.0341   -6.7402 H         1 <0>         0.4034
     26 H11         1.0870   -2.4045   -1.8745 H         1 <0>         0.4200
@<TRIPOS>BOND
     1    1    2 1
     2    1   16 1
     3    1   17 1
     4    1   18 1
     5    2    3 1
     6    3    4 1
     7    3    5 2
     8    4   19 1
     9    4   26 1
    10    5    6 1
    11    6    7 2
    12    6    8 2
    13    6    9 1
    14    9   14 ar
    15    9   10 ar
    16   10   11 ar
    17   10   20 1
    18   11   12 ar
    19   11   21 1
    20   12   13 ar
    21   12   15 1
    22   13   14 ar
    23   13   22 1
    24   14   23 1
    25   15   24 1
    26   15   25 1
@<TRIPOS>MOLECULE
ZINC13808067
   18    18     0     0     0
SMALL
USER_CHARGES

@<TRIPOS>ATOM
      1 C1         -0.0163    1.3513    0.0095 C.2       1 <0>        -0.1798
      2 C2          1.1833    2.0380    0.0017 C.2       1 <0>        -0.0485
      3 C3          2.3426    1.3358   -0.0131 C.2       1 <0>        -0.6783
      4 S1          1.7535   -0.3495   -0.0166 S.3       1 <0>         0.1367
      5 C4          0.0021   -0.0041    0.0020 C.2       1 <0>        -0.1729
      6 S2          4.0007    1.9316   -0.0263 S.o2      1 <0>         2.7073
      7 O1          4.7986    0.8998   -0.5901 O.2       1 <0>        -1.0019
      8 O2          3.9565    3.2437   -0.5701 O.2       1 <0>        -1.0015
      9 N1          4.4769    2.0892    1.5520 N.2       1 <0>        -1.0995
     10 C5          5.6758    2.5176    1.8313 C.2       1 <0>         0.6589
     11 N2          6.5451    2.8386    0.8157 N.2       1 <0>        -0.9560
     12 N3          6.0711    2.6484    3.1415 N.pl3     1 <0>        -0.8849
     13 H1         -0.9542    1.8866    0.0258 H         1 <0>         0.1351
     14 H2          1.1967    3.1179    0.0070 H         1 <0>         0.1431
     15 H3         -0.8275   -0.6955    0.0065 H         1 <0>         0.1870
     16 H4          5.4578    2.4219    3.8581 H         1 <0>         0.3800
     17 H5          6.9633    2.9672    3.3494 H         1 <0>         0.3825
     18 H6          7.4373    3.1574    1.0236 H         1 <0>         0.2925
@<TRIPOS>BOND
     1    1    5 2
     2    1    2 1
     3    1   13 1
     4    2    3 2
     5    2   14 1
     6    3    4 1
     7    3    6 1
     8    4    5 1
     9    5   15 1
    10    6    7 2
    11    6    8 2
    12    6    9 1
    13    9   10 2
    14   10   11 1
    15   10   12 1
    16   11   18 1
    17   12   16 1
    18   12   17 1
@<TRIPOS>MOLECULE
ZINC06863734
   24    24     0     0     0
SMALL
USER_CHARGES

@<TRIPOS>ATOM
      1 C1         -0.0166    1.3748    0.0096 C.ar      1 <0>        -0.0885
      2 C2          1.1705    2.0863    0.0021 C.ar      1 <0>        -0.1552
      3 C3          2.3836    1.4211   -0.0130 C.ar      1 <0>        -0.0469
      4 C4          2.4177    0.0421   -0.0212 C.ar      1 <0>        -0.6167
      5 C5          1.2235   -0.6828   -0.0137 C.ar      1 <0>        -0.0301
      6 C6          0.0021   -0.0041    0.0020 C.ar      1 <0>        -0.1130
      7 C7          1.2517   -2.1579   -0.0223 C.2       1 <0>         0.5026
      8 O1          0.2046   -2.7895   -0.0157 O.co2     1 <0>        -0.6805
      9 O2          2.3222   -2.7489   -0.0360 O.co2     1 <0>        -0.6253
     10 S1          3.9636   -0.8030   -0.0416 S.o2      1 <0>         2.6750
     11 O3          3.8799   -1.7781   -1.0718 O.2       1 <0>        -0.9500
     12 O4          4.9733    0.1967   -0.0190 O.2       1 <0>        -1.0316
     13 N1          4.0871   -1.6326    1.3863 N.2       1 <0>        -1.0057
     14 C8          5.1463   -2.3508    1.6333 C.2       1 <0>         0.7359
     15 N2          6.1612   -2.4196    0.7084 N.pl3     1 <0>        -0.8871
     16 N3          5.2488   -3.0395    2.8188 N.pl3     1 <0>        -0.8292
     17 H1         -0.9598    1.9006    0.0259 H         1 <0>         0.1212
     18 H2          1.1498    3.1661    0.0077 H         1 <0>         0.1215
     19 H3          3.3060    1.9828   -0.0188 H         1 <0>         0.1329
     20 H4         -0.9250   -0.5581    0.0082 H         1 <0>         0.1344
     21 H5          6.0889   -1.9337   -0.1280 H         1 <0>         0.4086
     22 H6          6.9495   -2.9541    0.8923 H         1 <0>         0.4021
     23 H7          4.5328   -2.9909    3.4714 H         1 <0>         0.4243
     24 H8          6.0371   -3.5740    3.0026 H         1 <0>         0.4015
@<TRIPOS>BOND
     1    1    6 ar
     2    1    2 ar
     3    1   17 1
     4    2    3 ar
     5    2   18 1
     6    3    4 ar
     7    3   19 1
     8    4    5 ar
     9    4   10 1
    10    5    6 ar
    11    5    7 1
    12    6   20 1
    13    7    8 2
    14    7    9 1
    15   10   11 2
    16   10   12 2
    17   10   13 1
    18   13   14 2
    19   14   15 1
    20   14   16 1
    21   15   21 1
    22   15   22 1
    23   16   23 1
    24   16   24 1
@<TRIPOS>MOLECULE
ZINC06864978
   30    31     0     0     0
SMALL
USER_CHARGES

@<TRIPOS>ATOM
      1 C1          0.0146    0.4131   -0.1434 C.ar      1 <0>        -0.1214
      2 C2          1.0489    1.3469   -0.1747 C.ar      1 <0>        -0.0799
      3 C3          2.3506    0.9524   -0.1323 C.ar      1 <0>        -0.1416
      4 C4          2.6603   -0.4163   -0.0553 C.ar      1 <0>         0.0299
      5 C5          1.6085   -1.3660   -0.0230 C.ar      1 <0>        -0.0757
      6 C6          0.2763   -0.9203   -0.0690 C.ar      1 <0>        -0.0897
      7 C7          1.9179   -2.7343    0.0545 C.ar      1 <0>        -0.0342
      8 C8          3.2201   -3.1289    0.0974 C.ar      1 <0>        -0.1499
      9 C9          4.2540   -2.1954    0.0660 C.ar      1 <0>         0.0171
     10 C10         3.9920   -0.8617   -0.0093 C.ar      1 <0>        -0.6789
     11 S1          5.3162    0.3000   -0.0488 S.o2      1 <0>         2.6974
     12 O1          6.5182   -0.4504    0.0584 O.2       1 <0>        -0.9379
     13 O2          5.0581    1.1732   -1.1397 O.2       1 <0>        -0.9335
     14 N1          5.2056    1.2156    1.3267 N.pl3     1 <0>        -0.8981
     15 N2          5.2544    0.5995    2.5840 N.pl3     1 <0>        -0.5504
     16 C11         6.1887    0.9998    3.5098 C.2       1 <0>         0.6396
     17 N3          7.0290    1.9524    3.2178 N.2       1 <0>        -0.8101
     18 N4          6.2365    0.3952    4.7437 N.pl3     1 <0>        -0.8416
     19 H1         -1.0100    0.7531   -0.1741 H         1 <0>         0.1311
     20 H2          0.8137    2.3993   -0.2339 H         1 <0>         0.1328
     21 H3          3.1416    1.6873   -0.1581 H         1 <0>         0.1310
     22 H4         -0.5354   -1.6323   -0.0452 H         1 <0>         0.1341
     23 H5          1.1269   -3.4691    0.0803 H         1 <0>         0.1392
     24 H6          3.4552   -4.1813    0.1569 H         1 <0>         0.1390
     25 H7          5.2785   -2.5351    0.1017 H         1 <0>         0.1479
     26 H8          5.1070    2.1783    1.2618 H         1 <0>         0.4229
     27 H9          4.6290   -0.1094    2.8014 H         1 <0>         0.4112
     28 H10         5.6112   -0.3137    4.9610 H         1 <0>         0.4036
     29 H11         6.8957    0.6776    5.3969 H         1 <0>         0.4242
     30 H12         6.9952    2.3789    2.3472 H         1 <0>         0.3420
@<TRIPOS>BOND
     1    1    6 ar
     2    1    2 ar
     3    1   19 1
     4    2    3 ar
     5    2   20 1
     6    3    4 ar
     7    3   21 1
     8    4   10 ar
     9    4    5 ar
    10    5    6 ar
    11    5    7 ar
    12    6   22 1
    13    7    8 ar
    14    7   23 1
    15    8    9 ar
    16    8   24 1
    17    9   10 ar
    18    9   25 1
    19   10   11 1
    20   11   12 2
    21   11   13 2
    22   11   14 1
    23   14   15 1
    24   14   26 1
    25   15   16 1
    26   15   27 1
    27   16   17 2
    28   16   18 1
    29   17   30 1
    30   18   28 1
    31   18   29 1
@<TRIPOS>MOLECULE
ZINC06864978
   30    31     0     0     0
SMALL
USER_CHARGES

@<TRIPOS>ATOM
      1 C1         -0.0164    1.3567    0.0095 C.ar      1 <0>        -0.1209
      2 C2          1.1685    2.0906    0.0021 C.ar      1 <0>        -0.1020
      3 C3          2.3785    1.4679   -0.0132 C.ar      1 <0>        -0.1147
      4 C4          2.4378    0.0637   -0.0214 C.ar      1 <0>         0.0266
      5 C5          1.2328   -0.6827   -0.0134 C.ar      1 <0>        -0.0741
      6 C6          0.0021   -0.0041    0.0020 C.ar      1 <0>        -0.1015
      7 C7          1.2920   -2.0865   -0.0210 C.ar      1 <0>        -0.0543
      8 C8          2.5022   -2.7094   -0.0359 C.ar      1 <0>        -0.1445
      9 C9          3.6867   -1.9757   -0.0433 C.ar      1 <0>        -0.0047
     10 C10         3.6681   -0.6146   -0.0367 C.ar      1 <0>        -0.6083
     11 S1          5.1790    0.2918   -0.0475 S.o2      1 <0>         2.6024
     12 O1          5.0766    1.2641    0.9837 O.2       1 <0>        -1.0161
     13 O2          6.2273   -0.6666   -0.0895 O.2       1 <0>        -1.0214
     14 N1          5.2408    1.1237   -1.4780 N.2       1 <0>        -0.9418
     15 N2          6.3420    1.9404   -1.7665 N.pl3     1 <0>        -0.3951
     16 C11         6.3904    2.5929   -2.8886 C.cat     1 <0>         0.7032
     17 N3          5.3511    2.4812   -3.8019 N.pl3     1 <0>        -0.8142
     18 N4          7.4815    3.4020   -3.1744 N.pl3     1 <0>        -0.8522
     19 H1         -0.9634    1.8756    0.0259 H         1 <0>         0.1253
     20 H2          1.1258    3.1698    0.0084 H         1 <0>         0.1261
     21 H3          3.2883    2.0497   -0.0195 H         1 <0>         0.1435
     22 H4         -0.9241   -0.5595    0.0082 H         1 <0>         0.1288
     23 H5          0.3820   -2.6682   -0.0147 H         1 <0>         0.1338
     24 H6          2.5450   -3.7886   -0.0417 H         1 <0>         0.1331
     25 H7          4.6338   -2.4947   -0.0548 H         1 <0>         0.1420
     26 H8          8.2078    3.4801   -2.5362 H         1 <0>         0.4233
     27 H9          7.5177    3.8893   -4.0123 H         1 <0>         0.4263
     28 H10         4.5886    1.9158   -3.6021 H         1 <0>         0.4412
     29 H11         5.3873    2.9685   -4.6398 H         1 <0>         0.4150
     30 H12         7.0683    2.0185   -1.1283 H         1 <0>         0.3951
@<TRIPOS>BOND
     1    1    6 ar
     2    1    2 ar
     3    1   19 1
     4    2    3 ar
     5    2   20 1
     6    3    4 ar
     7    3   21 1
     8    4   10 ar
     9    4    5 ar
    10    5    6 ar
    11    5    7 ar
    12    6   22 1
    13    7    8 ar
    14    7   23 1
    15    8    9 ar
    16    8   24 1
    17    9   10 ar
    18    9   25 1
    19   10   11 1
    20   11   12 2
    21   11   13 2
    22   11   14 1
    23   14   15 1
    24   15   16 2
    25   15   30 1
    26   16   17 1
    27   16   18 1
    28   17   28 1
    29   17   29 1
    30   18   26 1
    31   18   27 1
@<TRIPOS>MOLECULE
ZINC06864978
   31    32     0     0     0
SMALL
USER_CHARGES

@<TRIPOS>ATOM
      1 C1         -0.0873    0.9440    0.0717 C.ar      1 <0>        -0.1219
      2 C2          1.0346    1.7679    0.0003 C.ar      1 <0>        -0.0672
      3 C3          2.2901    1.2429   -0.0104 C.ar      1 <0>        -0.1596
      4 C4          2.4616   -0.1507    0.0518 C.ar      1 <0>         0.0318
      5 C5          1.3206   -0.9886    0.1249 C.ar      1 <0>        -0.0768
      6 C6          0.0400   -0.4096    0.1332 C.ar      1 <0>        -0.0794
      7 C7          1.4920   -2.3817    0.1876 C.ar      1 <0>        -0.0176
      8 C8          2.7478   -2.9070    0.1773 C.ar      1 <0>        -0.1533
      9 C9          3.8693   -2.0833    0.1060 C.ar      1 <0>         0.0232
     10 C10         3.7418   -0.7295    0.0435 C.ar      1 <0>        -0.6944
     11 S1          5.1748    0.2918   -0.0473 S.o2      1 <0>         2.6796
     12 O1          6.2975   -0.5767    0.0219 O.2       1 <0>        -0.9174
     13 O2          4.9686    1.1852   -1.1329 O.2       1 <0>        -0.8936
     14 N1          5.2056    1.2156    1.3267 N.pl3     1 <0>        -0.9142
     15 N2          5.2544    0.5995    2.5840 N.pl3     1 <0>        -0.4215
     16 C11         5.1773    1.3186    3.6630 C.cat     1 <0>         0.7398
     17 N3          5.0465    2.6974    3.5703 N.pl3     1 <0>        -0.8086
     18 N4          5.2256    0.7082    4.9088 N.pl3     1 <0>        -0.8016
     19 H1         -1.0724    1.3866    0.0828 H         1 <0>         0.1364
     20 H2          0.9057    2.8391   -0.0476 H         1 <0>         0.1359
     21 H3          3.1502    1.8936   -0.0667 H         1 <0>         0.1250
     22 H4         -0.8384   -1.0354    0.1885 H         1 <0>         0.1394
     23 H5          0.6319   -3.0325    0.2439 H         1 <0>         0.1451
     24 H6          2.8768   -3.9782    0.2256 H         1 <0>         0.1450
     25 H7          4.8546   -2.5257    0.0997 H         1 <0>         0.1515
     26 H8          5.3170   -0.2553    4.9736 H         1 <0>         0.4417
     27 H9          5.1680    1.2452    5.7145 H         1 <0>         0.4464
     28 H10         5.0127    3.1239    2.6998 H         1 <0>         0.4339
     29 H11         4.9889    3.2344    4.3761 H         1 <0>         0.4448
     30 H12         5.3458   -0.3640    2.6488 H         1 <0>         0.4664
     31 H13         5.1898    2.1832    1.2610 H         1 <0>         0.4413
@<TRIPOS>BOND
     1    1    6 ar
     2    1    2 ar
     3    1   19 1
     4    2    3 ar
     5    2   20 1
     6    3    4 ar
     7    3   21 1
     8    4   10 ar
     9    4    5 ar
    10    5    6 ar
    11    5    7 ar
    12    6   22 1
    13    7    8 ar
    14    7   23 1
    15    8    9 ar
    16    8   24 1
    17    9   10 ar
    18    9   25 1
    19   10   11 1
    20   11   12 2
    21   11   13 2
    22   11   14 1
    23   14   15 1
    24   14   31 1
    25   15   16 2
    26   15   30 1
    27   16   17 1
    28   16   18 1
    29   17   28 1
    30   17   29 1
    31   18   26 1
    32   18   27 1
@<TRIPOS>MOLECULE
ZINC13808164
   33    33     0     0     0
SMALL
USER_CHARGES

@<TRIPOS>ATOM
      1 C1         -1.0228    1.3007    0.1869 C.3       1 <0>        -0.1266
      2 C2         -0.4784   -0.1009    0.0864 C.ar      1 <0>        -0.0146
      3 C3         -0.0852   -0.6034   -1.1399 C.ar      1 <0>        -0.1547
      4 C4          0.4141   -1.8891   -1.2321 C.ar      1 <0>         0.0278
      5 C5          0.5207   -2.6722   -0.0980 C.ar      1 <0>        -0.6988
      6 C6          0.1283   -2.1694    1.1284 C.ar      1 <0>         0.0342
      7 C7         -0.3670   -0.8822    1.2213 C.ar      1 <0>        -0.1539
      8 C8          0.2441   -3.0233    2.3648 C.3       1 <0>        -0.1402
      9 S1          1.1561   -4.3114   -0.2157 S.o2      1 <0>         2.6971
     10 O1          1.9115   -4.3688   -1.4180 O.2       1 <0>        -0.9395
     11 O2          1.7176   -4.6214    1.0523 O.2       1 <0>        -0.9394
     12 N1         -0.1377   -5.3245   -0.4209 N.pl3     1 <0>        -0.8802
     13 N2         -0.9789   -5.1705   -1.5307 N.pl3     1 <0>        -0.5061
     14 C9         -1.2099   -6.2339   -2.3709 C.2       1 <0>         0.6351
     15 N3         -0.6463   -7.3853   -2.1350 N.2       1 <0>        -0.8093
     16 N4         -2.0353   -6.0828   -3.4599 N.pl3     1 <0>        -0.8914
     17 C10         0.8419   -2.4372   -2.5692 C.3       1 <0>        -0.1451
     18 H1         -0.2032    1.9969    0.3645 H         1 <0>         0.0809
     19 H2         -1.5267    1.5624   -0.7435 H         1 <0>         0.0736
     20 H3         -1.7323    1.3566    1.0125 H         1 <0>         0.0737
     21 H4         -0.1685    0.0084   -2.0260 H         1 <0>         0.1327
     22 H5         -0.6701   -0.4881    2.1801 H         1 <0>         0.1330
     23 H6          1.2587   -2.9580    2.7578 H         1 <0>         0.0987
     24 H7         -0.4606   -2.6701    3.1176 H         1 <0>         0.0766
     25 H8          0.0179   -4.0595    2.1132 H         1 <0>         0.0774
     26 H9         -0.3131   -6.0245    0.2273 H         1 <0>         0.4280
     27 H10        -0.8093   -8.1356   -2.7279 H         1 <0>         0.3440
     28 H11        -2.4547   -5.2260   -3.6354 H         1 <0>         0.3912
     29 H12        -2.1983   -6.8331   -4.0527 H         1 <0>         0.4141
     30 H13         1.9176   -2.3071   -2.6879 H         1 <0>         0.0967
     31 H14         0.5960   -3.4978   -2.6226 H         1 <0>         0.0872
     32 H15         0.3214   -1.9031   -3.3642 H         1 <0>         0.0732
     33 H16        -1.3983   -4.3137   -1.7062 H         1 <0>         0.4245
@<TRIPOS>BOND
     1    1    2 1
     2    1   18 1
     3    1   19 1
     4    1   20 1
     5    2    7 ar
     6    2    3 ar
     7    3    4 ar
     8    3   21 1
     9    4    5 ar
    10    4   17 1
    11    5    6 ar
    12    5    9 1
    13    6    7 ar
    14    6    8 1
    15    7   22 1
    16    8   23 1
    17    8   24 1
    18    8   25 1
    19    9   10 2
    20    9   11 2
    21    9   12 1
    22   12   13 1
    23   12   26 1
    24   13   14 1
    25   13   33 1
    26   14   15 2
    27   14   16 1
    28   15   27 1
    29   16   28 1
    30   16   29 1
    31   17   30 1
    32   17   31 1
    33   17   32 1
@<TRIPOS>MOLECULE
ZINC13808164
   33    33     0     0     0
SMALL
USER_CHARGES

@<TRIPOS>ATOM
      1 C1         -1.0226    1.3005    0.1901 C.3       1 <0>        -0.1240
      2 C2         -0.4783   -0.1010    0.0879 C.ar      1 <0>        -0.0202
      3 C3         -0.0876   -0.6029   -1.1394 C.ar      1 <0>        -0.1582
      4 C4          0.4117   -1.8886   -1.2331 C.ar      1 <0>         0.0448
      5 C5          0.5206   -2.6721   -0.0995 C.ar      1 <0>        -0.6812
      6 C6          0.1307   -2.1699    1.1279 C.ar      1 <0>         0.0256
      7 C7         -0.3646   -0.8827    1.2223 C.ar      1 <0>        -0.1583
      8 C8          0.2490   -3.0243    2.3637 C.3       1 <0>        -0.1349
      9 S1          1.1559   -4.3112   -0.2192 S.o2      1 <0>         2.7250
     10 O1          1.9111   -4.3673   -1.4216 O.2       1 <0>        -0.9448
     11 O2          1.7176   -4.6227    1.0484 O.2       1 <0>        -0.9591
     12 N1         -0.1380   -5.3240   -0.4253 N.pl3     1 <0>        -0.9557
     13 N2         -0.9793   -5.1688   -1.5347 N.2       1 <0>        -0.3823
     14 C9         -1.9943   -5.9632   -1.6964 C.2       1 <0>         0.5943
     15 N3         -2.2452   -6.9659   -0.7699 N.pl3     1 <0>        -0.8896
     16 N4         -2.8279   -5.8093   -2.7956 N.pl3     1 <0>        -0.8437
     17 C10         0.8368   -2.4361   -2.5713 C.3       1 <0>        -0.1437
     18 H1         -0.2027    1.9968    0.3663 H         1 <0>         0.0787
     19 H2         -1.5284    1.5626   -0.7392 H         1 <0>         0.0720
     20 H3         -1.7304    1.3560    1.0172 H         1 <0>         0.0712
     21 H4         -0.1726    0.0092   -2.0250 H         1 <0>         0.1297
     22 H5         -0.6657   -0.4891    2.1819 H         1 <0>         0.1289
     23 H6          1.2644   -2.9592    2.7545 H         1 <0>         0.0959
     24 H7         -0.4541   -2.6712    3.1181 H         1 <0>         0.0727
     25 H8          0.0221   -4.0603    2.1122 H         1 <0>         0.0727
     26 H9         -0.3134   -6.0247    0.2221 H         1 <0>         0.3862
     27 H10        -2.6525   -5.1086   -3.4430 H         1 <0>         0.4204
     28 H11        -3.5858   -6.4026   -2.9163 H         1 <0>         0.4093
     29 H12         1.9119   -2.3039   -2.6930 H         1 <0>         0.0885
     30 H13         0.5929   -3.4971   -2.6238 H         1 <0>         0.1036
     31 H14         0.3131   -1.9032   -3.3649 H         1 <0>         0.0673
     32 H15        -1.6627   -7.0734   -0.0018 H         1 <0>         0.4073
     33 H16        -3.0031   -7.5591   -0.8906 H         1 <0>         0.4014
@<TRIPOS>BOND
     1    1    2 1
     2    1   18 1
     3    1   19 1
     4    1   20 1
     5    2    7 ar
     6    2    3 ar
     7    3    4 ar
     8    3   21 1
     9    4    5 ar
    10    4   17 1
    11    5    6 ar
    12    5    9 1
    13    6    7 ar
    14    6    8 1
    15    7   22 1
    16    8   23 1
    17    8   24 1
    18    8   25 1
    19    9   10 2
    20    9   11 2
    21    9   12 1
    22   12   13 1
    23   12   26 1
    24   13   14 2
    25   14   15 1
    26   14   16 1
    27   15   32 1
    28   15   33 1
    29   16   27 1
    30   16   28 1
    31   17   29 1
    32   17   30 1
    33   17   31 1
@<TRIPOS>MOLECULE
ZINC01552536
   49    50     0     0     0
SMALL
USER_CHARGES
4-[3-(4-amidino-2-amino-phenoxy)propoxy]-3-amino-benzamidine
@<TRIPOS>ATOM
      1 C1         -3.7536   -0.4338    0.0368 C.ar      1 <0>        -0.0664
      2 C2         -3.7774    0.9454    0.0435 C.ar      1 <0>        -0.1684
      3 C3         -4.9883    1.6212    0.0588 C.ar      1 <0>         0.1256
      4 C4         -6.1875    0.9084    0.0722 C.ar      1 <0>         0.2099
      5 C5         -6.1689   -0.4751    0.0601 C.ar      1 <0>        -0.1281
      6 C6         -4.9491   -1.1532    0.0453 C.ar      1 <0>        -0.1420
      7 C7         -4.9237   -2.6323    0.0381 C.cat     1 <0>         0.6013
      8 N1         -3.7185   -3.3007    0.0230 N.pl3     1 <0>        -0.7823
      9 N2         -7.4087    1.5923    0.0930 N.pl3     1 <0>        -0.8589
     10 O1         -5.0068    2.9799    0.0663 O.3       1 <0>        -0.3025
     11 C8         -3.7425    3.6459    0.0578 C.3       1 <0>         0.0624
     12 C9         -3.9635    5.1598    0.0680 C.3       1 <0>        -0.1247
     13 C10        -2.6099    5.8729    0.0589 C.3       1 <0>         0.0624
     14 O2         -2.8163    7.2869    0.0685 O.3       1 <0>        -0.3025
     15 C11        -1.7074    8.0722    0.0621 C.ar      1 <0>         0.1256
     16 C12        -0.4480    7.4918    0.0470 C.ar      1 <0>        -0.1685
     17 C13         0.6805    8.2849    0.0396 C.ar      1 <0>        -0.0664
     18 C14         0.5578    9.6747    0.0474 C.ar      1 <0>        -0.1420
     19 C15        -0.7087   10.2611    0.0631 C.ar      1 <0>        -0.1281
     20 C16        -1.8378    9.4613    0.0651 C.ar      1 <0>         0.2099
     21 N3         -3.1099   10.0454    0.0750 N.pl3     1 <0>        -0.8589
     22 C17         1.7681   10.5253    0.0394 C.cat     1 <0>         0.6013
     23 N4          3.0180    9.9451    0.0244 N.pl3     1 <0>        -0.7822
     24 H1         -2.8090   -0.9571    0.0253 H         1 <0>         0.1382
     25 H2         -2.8509    1.5002    0.0374 H         1 <0>         0.1494
     26 H3         -7.0960   -1.0290    0.0667 H         1 <0>         0.1408
     27 H4         -6.1277   -4.2748    0.0423 H         1 <0>         0.4442
     28 H5         -2.8870   -2.8013    0.0171 H         1 <0>         0.4418
     29 H6         -3.7019   -4.2706    0.0183 H         1 <0>         0.4314
     30 H7         -7.4214    2.5622    0.0980 H         1 <0>         0.4141
     31 H8         -8.2423    1.0963    0.1022 H         1 <0>         0.4087
     32 H9         -3.1731    3.3559    0.9408 H         1 <0>         0.0757
     33 H10        -3.1901    3.3654   -0.8390 H         1 <0>         0.0757
     34 H11        -4.5329    5.4499   -0.8150 H         1 <0>         0.0933
     35 H12        -4.5159    5.4403    0.9649 H         1 <0>         0.0933
     36 H13        -2.0405    5.5829    0.9420 H         1 <0>         0.0757
     37 H14        -2.0574    5.5925   -0.8379 H         1 <0>         0.0757
     38 H15        -0.3507    6.4162    0.0406 H         1 <0>         0.1494
     39 H16         1.6598    7.8297    0.0274 H         1 <0>         0.1382
     40 H17        -0.8071   11.3365    0.0691 H         1 <0>         0.1408
     41 H18        -3.9012    9.4843    0.0799 H         1 <0>         0.4141
     42 H19        -3.2001   11.0112    0.0770 H         1 <0>         0.4087
     43 H20         2.3862   12.4659    0.0424 H         1 <0>         0.4441
     44 H21         3.1043    8.9790    0.0190 H         1 <0>         0.4418
     45 H22         3.8116   10.5029    0.0191 H         1 <0>         0.4314
     46 N5         -6.0929   -3.2553    0.0467 N.pl3     1 <0>        -0.7605
     47 H23        -6.9641   -2.7119    0.0579 H         1 <0>         0.4592
     48 N6          1.5828   11.8373    0.0473 N.pl3     1 <0>        -0.7606
     49 H24         0.6306   12.2212    0.0585 H         1 <0>         0.4591
@<TRIPOS>BOND
     1    1    6 ar
     2    1    2 ar
     3    1   24 1
     4    2    3 ar
     5    2   25 1
     6    3    4 ar
     7    3   10 1
     8    4    5 ar
     9    4    9 1
    10    5    6 ar
    11    5   26 1
    12    6    7 1
    13    7    8 1
    14    7   46 2
    15    8   28 1
    16    8   29 1
    17    9   30 1
    18    9   31 1
    19   10   11 1
    20   11   12 1
    21   11   32 1
    22   11   33 1
    23   12   13 1
    24   12   34 1
    25   12   35 1
    26   13   14 1
    27   13   36 1
    28   13   37 1
    29   14   15 1
    30   15   20 ar
    31   15   16 ar
    32   16   17 ar
    33   16   38 1
    34   17   18 ar
    35   17   39 1
    36   18   19 ar
    37   18   22 1
    38   19   20 ar
    39   19   40 1
    40   20   21 1
    41   21   41 1
    42   21   42 1
    43   22   23 1
    44   22   48 2
    45   23   44 1
    46   23   45 1
    47   27   46 1
    48   43   48 1
    49   46   47 1
    50   48   49 1
@<TRIPOS>MOLECULE
ZINC01665564
   45    46     0     0     0
SMALL
USER_CHARGES

@<TRIPOS>ATOM
      1 C1         -0.0169    1.3924    0.0097 C.ar      1 <0>        -0.0141
      2 C2          1.1675    2.0955    0.0022 C.ar      1 <0>        -0.1465
      3 C3          2.3802    1.4171   -0.0135 C.ar      1 <0>         0.2031
      4 C4          2.4031    0.0276   -0.0217 C.ar      1 <0>        -0.2118
      5 C5          1.2228   -0.6824   -0.0138 C.ar      1 <0>        -0.0114
      6 C6          0.0021   -0.0041    0.0020 C.ar      1 <0>        -0.1988
      7 C7         -1.2662   -0.7620    0.0105 C.cat     1 <0>         0.6029
      8 N1         -1.2462   -2.0942    0.0032 N.pl3     1 <0>        -0.7657
      9 N2         -2.4299   -0.1132    0.0256 N.pl3     1 <0>        -0.7631
     10 O1          3.5453    2.1133   -0.0214 O.3       1 <0>        -0.2929
     11 C8          4.7553    1.3532   -0.0374 C.3       1 <0>         0.0573
     12 C9          5.9545    2.3033   -0.0443 C.3       1 <0>        -0.1265
     13 C10         7.2499    1.4894   -0.0615 C.3       1 <0>         0.0573
     14 O2          8.3699    2.3768   -0.0679 O.3       1 <0>        -0.2928
     15 C11         9.6038    1.8116   -0.0831 C.ar      1 <0>         0.2031
     16 C12         9.7323    0.4279   -0.0976 C.ar      1 <0>        -0.2118
     17 C13        10.9827   -0.1492   -0.1127 C.ar      1 <0>        -0.0113
     18 C14        12.1225    0.6579   -0.1139 C.ar      1 <0>        -0.1988
     19 C15        11.9894    2.0481   -0.0998 C.ar      1 <0>        -0.0141
     20 C16        10.7356    2.6181   -0.0901 C.ar      1 <0>        -0.1465
     21 C17        13.4657    0.0427   -0.1295 C.cat     1 <0>         0.6029
     22 N3         14.5520    0.8143   -0.1307 N.pl3     1 <0>        -0.7631
     23 N4         13.5908   -1.2838   -0.1425 N.pl3     1 <0>        -0.7657
     24 H1         -0.9589    1.9203    0.0260 H         1 <0>         0.1467
     25 H2          1.1536    3.1754    0.0081 H         1 <0>         0.1585
     26 H3          3.3474   -0.4962   -0.0346 H         1 <0>         0.1505
     27 H4          1.2413   -1.7622   -0.0204 H         1 <0>         0.1412
     28 H5         -0.3991   -2.5665   -0.0077 H         1 <0>         0.4422
     29 H6         -2.4445    0.8567    0.0309 H         1 <0>         0.4439
     30 H7         -3.2626   -0.6108    0.0312 H         1 <0>         0.4345
     31 H8          4.7984    0.7200    0.8488 H         1 <0>         0.0779
     32 H9          4.7807    0.7296   -0.9311 H         1 <0>         0.0779
     33 H10         5.9113    2.9365   -0.9305 H         1 <0>         0.0965
     34 H11         5.9290    2.9269    0.8494 H         1 <0>         0.0965
     35 H12         7.2930    0.8563    0.8247 H         1 <0>         0.0779
     36 H13         7.2753    0.8658   -0.9551 H         1 <0>         0.0779
     37 H14         8.8504   -0.1956   -0.0966 H         1 <0>         0.1506
     38 H15        11.0818   -1.2246   -0.1231 H         1 <0>         0.1412
     39 H16        12.8686    2.6755   -0.1004 H         1 <0>         0.1467
     40 H17        10.6319    3.6931   -0.0833 H         1 <0>         0.1585
     41 H18        14.4609    1.7799   -0.1213 H         1 <0>         0.4439
     42 H19        12.8000   -1.8456   -0.1417 H         1 <0>         0.4422
     43 H20        14.4726   -1.6878   -0.1528 H         1 <0>         0.4342
     44 H21        -2.0789   -2.5918    0.0088 H         1 <0>         0.4342
     45 H22        15.4338    0.4103   -0.1410 H         1 <0>         0.4345
@<TRIPOS>BOND
     1    1    6 ar
     2    1    2 ar
     3    1   24 1
     4    2    3 ar
     5    2   25 1
     6    3    4 ar
     7    3   10 1
     8    4    5 ar
     9    4   26 1
    10    5    6 ar
    11    5   27 1
    12    6    7 1
    13    7    8 2
    14    7    9 1
    15    8   28 1
    16    8   44 1
    17    9   29 1
    18    9   30 1
    19   10   11 1
    20   11   12 1
    21   11   31 1
    22   11   32 1
    23   12   13 1
    24   12   33 1
    25   12   34 1
    26   13   14 1
    27   13   35 1
    28   13   36 1
    29   14   15 1
    30   15   20 ar
    31   15   16 ar
    32   16   17 ar
    33   16   37 1
    34   17   18 ar
    35   17   38 1
    36   18   19 ar
    37   18   21 1
    38   19   20 ar
    39   19   39 1
    40   20   40 1
    41   21   22 2
    42   21   23 1
    43   22   41 1
    44   22   45 1
    45   23   42 1
    46   23   43 1
@<TRIPOS>MOLECULE
ZINC13808043
   22    22     0     0     0
SMALL
USER_CHARGES

@<TRIPOS>ATOM
      1 C1         -0.0167    1.3815    0.0096 C.ar      1 <0>         0.1522
      2 C2          1.1742    2.0898    0.0021 C.ar      1 <0>         0.0351
      3 C3          2.3831    1.4120   -0.0131 C.ar      1 <0>         0.2264
      4 C4          2.4009    0.0281   -0.0212 C.ar      1 <0>        -0.6914
      5 C5          1.2118   -0.6802   -0.0141 C.ar      1 <0>         0.2262
      6 C6          0.0021   -0.0041    0.0020 C.ar      1 <0>         0.0351
      7 F1         -1.1585   -0.6956    0.0098 F         1 <0>        -0.0935
      8 F2          1.2303   -2.0311   -0.0229 F         1 <0>        -0.0728
      9 S1          3.9383   -0.8326   -0.0411 S.o2      1 <0>         2.6577
     10 O1          3.6790   -2.1145   -0.5967 O.2       1 <0>        -0.9576
     11 O2          4.8956    0.0589   -0.5962 O.2       1 <0>        -0.9576
     12 N1          4.3809   -1.0807    1.5353 N.2       1 <0>        -1.0524
     13 C7          5.4928   -1.7032    1.8097 C.2       1 <0>         0.7568
     14 N2          6.2980   -2.1537    0.7906 N.pl3     1 <0>        -0.8769
     15 N3          5.8602   -1.9092    3.1184 N.pl3     1 <0>        -0.8120
     16 F3          3.5443    2.1024   -0.0205 F         1 <0>        -0.0727
     17 F4          1.1570    3.4407    0.0090 F         1 <0>        -0.0935
     18 F5         -1.1954    2.0413    0.0301 F         1 <0>        -0.0842
     19 H1          6.0387   -2.0084   -0.1328 H         1 <0>         0.4127
     20 H2          7.1254   -2.6170    0.9948 H         1 <0>         0.4168
     21 H3          5.2921   -1.5914    3.8375 H         1 <0>         0.4313
     22 H4          6.6876   -2.3725    3.3227 H         1 <0>         0.4145
@<TRIPOS>BOND
     1    1    6 ar
     2    1    2 ar
     3    1   18 1
     4    2    3 ar
     5    2   17 1
     6    3    4 ar
     7    3   16 1
     8    4    5 ar
     9    4    9 1
    10    5    6 ar
    11    5    8 1
    12    6    7 1
    13    9   10 2
    14    9   11 2
    15    9   12 1
    16   12   13 2
    17   13   14 1
    18   13   15 1
    19   14   19 1
    20   14   20 1
    21   15   21 1
    22   15   22 1
