@<TRIPOS>MOLECULE
ZINC01735106
   44    47     0     0     0
SMALL
USER_CHARGES

@<TRIPOS>ATOM
      1 C1         -0.0187    1.5258    0.0104 C.3       1 <0>        -0.1559
      2 C2          0.0021   -0.0041    0.0020 C.3       1 <0>        -0.1498
      3 C3          0.7182   -0.4975   -1.2568 C.3       1 <0>        -0.0179
      4 N1          0.7381   -1.9663   -1.2649 N.4       1 <0>        -0.3808
      5 C4         -0.6309   -2.4715   -1.3713 C.3       1 <0>        -0.0091
      6 C5         -0.6674   -3.9804   -1.1911 C.3       1 <0>        -0.1040
      7 C6          0.4971   -4.6576   -1.8567 C.ar      1 <0>        -0.0852
      8 C7          0.5145   -6.0460   -1.8985 C.ar      1 <0>        -0.1049
      9 C8          1.5466   -6.7216   -2.5180 C.ar      1 <0>        -0.0901
     10 C9          2.5791   -6.0152   -3.1019 C.ar      1 <0>        -0.1020
     11 C10         2.5800   -4.6263   -3.0466 C.ar      1 <0>        -0.0116
     12 C11         1.5293   -3.9447   -2.4270 C.ar      1 <0>        -0.1241
     13 C12         1.5291   -2.4389   -2.4108 C.3       1 <0>         0.0913
     14 H1          1.0854   -2.0673   -3.3344 H         1 <0>         0.1455
     15 C13         2.9497   -1.8929   -2.2835 C.3       1 <0>        -0.0937
     16 C14         3.8562   -2.5150   -3.3100 C.ar      1 <0>        -0.0796
     17 C15         3.6812   -3.8512   -3.6652 C.ar      1 <0>        -0.0644
     18 C16         4.5349   -4.4443   -4.5942 C.ar      1 <0>         0.1045
     19 C17         5.5497   -3.6890   -5.1735 C.ar      1 <0>         0.0996
     20 C18         5.7043   -2.3564   -4.8263 C.ar      1 <0>        -0.1173
     21 C19         4.8603   -1.7731   -3.8971 C.ar      1 <0>        -0.0939
     22 O1          6.3893   -4.2581   -6.0795 O.3       1 <0>        -0.4821
     23 O2          4.3773   -5.7517   -4.9314 O.3       1 <0>        -0.4759
     24 H2          1.0039    1.9031    0.0027 H         1 <0>         0.0676
     25 H3         -0.5459    1.8868   -0.8726 H         1 <0>         0.0673
     26 H4         -0.5289    1.8773    0.9072 H         1 <0>         0.0780
     27 H5          0.5293   -0.3651    0.8851 H         1 <0>         0.0869
     28 H6         -1.0205   -0.3814    0.0098 H         1 <0>         0.0869
     29 H7          0.1910   -0.1364   -2.1398 H         1 <0>         0.1325
     30 H8          1.7408   -0.1202   -1.2645 H         1 <0>         0.1348
     31 H9         -1.2462   -2.0038   -0.6028 H         1 <0>         0.1402
     32 H10        -1.0310   -2.2181   -2.3530 H         1 <0>         0.1302
     33 H11        -0.6491   -4.2102   -0.1258 H         1 <0>         0.1043
     34 H12        -1.5929   -4.3657   -1.6190 H         1 <0>         0.1229
     35 H13        -0.2891   -6.6036   -1.4405 H         1 <0>         0.1356
     36 H14         1.5466   -7.8013   -2.5455 H         1 <0>         0.1399
     37 H15         3.3818   -6.5391   -3.5994 H         1 <0>         0.1672
     38 H16         2.9328   -0.8126   -2.4277 H         1 <0>         0.1073
     39 H17         3.3311   -2.1148   -1.2868 H         1 <0>         0.1010
     40 H18         6.4880   -1.7699   -5.2826 H         1 <0>         0.1450
     41 H19         4.9883   -0.7342   -3.6308 H         1 <0>         0.1396
     42 H20         6.0854   -4.1892   -6.9949 H         1 <0>         0.3965
     43 H21         3.7843   -5.8957   -5.6816 H         1 <0>         0.3942
     44 H22         1.1538   -2.3014   -0.4087 H         1 <0>         0.4239
@<TRIPOS>BOND
     1    1    2 1
     2    1   24 1
     3    1   25 1
     4    1   26 1
     5    2    3 1
     6    2   27 1
     7    2   28 1
     8    3    4 1
     9    3   29 1
    10    3   30 1
    11    4   13 1
    12    4    5 1
    13    4   44 1
    14    5    6 1
    15    5   31 1
    16    5   32 1
    17    6    7 1
    18    6   33 1
    19    6   34 1
    20    7   12 ar
    21    7    8 ar
    22    8    9 ar
    23    8   35 1
    24    9   10 ar
    25    9   36 1
    26   10   11 ar
    27   10   37 1
    28   11   17 1
    29   11   12 ar
    30   12   13 1
    31   13   14 1
    32   13   15 1
    33   15   16 1
    34   15   38 1
    35   15   39 1
    36   16   21 ar
    37   16   17 ar
    38   17   18 ar
    39   18   19 ar
    40   18   23 1
    41   19   20 ar
    42   19   22 1
    43   20   21 ar
    44   20   40 1
    45   21   41 1
    46   22   42 1
    47   23   43 1
@<TRIPOS>MOLECULE
ZINC01735106
   43    46     0     0     0
SMALL
USER_CHARGES

@<TRIPOS>ATOM
      1 C1         -0.0187    1.5258    0.0104 C.3       1 <0>        -0.1525
      2 C2          0.0021   -0.0041    0.0020 C.3       1 <0>        -0.1213
      3 C3          0.7182   -0.4975   -1.2568 C.3       1 <0>         0.0485
      4 N1          0.7381   -1.9663   -1.2649 N.3       1 <0>        -0.5302
      5 C4         -0.6146   -2.5086   -1.4036 C.3       1 <0>         0.0526
      6 C5         -0.6236   -4.0088   -1.1621 C.3       1 <0>        -0.0769
      7 C6          0.5903   -4.6864   -1.7312 C.ar      1 <0>        -0.0672
      8 C7          0.6326   -6.0755   -1.7136 C.ar      1 <0>        -0.1165
      9 C8          1.7101   -6.7575   -2.2416 C.ar      1 <0>        -0.1201
     10 C9          2.7659   -6.0576   -2.7908 C.ar      1 <0>        -0.1129
     11 C10         2.7415   -4.6678   -2.7940 C.ar      1 <0>        -0.0450
     12 C11         1.6430   -3.9804   -2.2706 C.ar      1 <0>        -0.0594
     13 C12         1.6176   -2.4756   -2.3277 C.3       1 <0>         0.1315
     14 H1          1.2350   -2.1569   -3.2973 H         1 <0>         0.0551
     15 C13         3.0169   -1.8977   -2.1285 C.3       1 <0>        -0.0733
     16 C14         3.9991   -2.5458   -3.0659 C.ar      1 <0>        -0.0657
     17 C15         3.8681   -3.8987   -3.3736 C.ar      1 <0>        -0.0514
     18 C16         4.7888   -4.5143   -4.2205 C.ar      1 <0>         0.0945
     19 C17         5.8273   -3.7656   -4.7649 C.ar      1 <0>         0.0806
     20 C18         5.9393   -2.4174   -4.4649 C.ar      1 <0>        -0.1265
     21 C19         5.0279   -1.8112   -3.6179 C.ar      1 <0>        -0.1048
     22 O1          6.7316   -4.3563   -5.5913 O.3       1 <0>        -0.4862
     23 O2          4.6722   -5.8367   -4.5126 O.3       1 <0>        -0.4773
     24 H2          1.0039    1.9031    0.0027 H         1 <0>         0.0554
     25 H3         -0.5459    1.8868   -0.8726 H         1 <0>         0.0526
     26 H4         -0.5289    1.8773    0.9072 H         1 <0>         0.0577
     27 H5          0.5293   -0.3651    0.8851 H         1 <0>         0.0718
     28 H6         -1.0205   -0.3814    0.0098 H         1 <0>         0.0622
     29 H7          0.1910   -0.1364   -2.1398 H         1 <0>         0.0354
     30 H8          1.7408   -0.1202   -1.2645 H         1 <0>         0.0817
     31 H9         -1.2706   -2.0250   -0.6798 H         1 <0>         0.0866
     32 H10        -0.9808   -2.3053   -2.4099 H         1 <0>         0.0343
     33 H11        -0.6605   -4.1934   -0.0885 H         1 <0>         0.0826
     34 H12        -1.5147   -4.4352   -1.6228 H         1 <0>         0.0795
     35 H13        -0.1884   -6.6283   -1.2815 H         1 <0>         0.1217
     36 H14         1.7276   -7.8373   -2.2248 H         1 <0>         0.1252
     37 H15         3.6061   -6.5869   -3.2151 H         1 <0>         0.1553
     38 H16         2.9927   -0.8249   -2.3194 H         1 <0>         0.0840
     39 H17         3.3339   -2.0715   -1.1002 H         1 <0>         0.0939
     40 H18         6.7420   -1.8365   -4.8946 H         1 <0>         0.1359
     41 H19         5.1225   -0.7601   -3.3885 H         1 <0>         0.1337
     42 H20         6.4860   -4.3299   -6.5262 H         1 <0>         0.3877
     43 H21         4.1312   -6.0210   -5.2927 H         1 <0>         0.3872
@<TRIPOS>BOND
     1    1    2 1
     2    1   24 1
     3    1   25 1
     4    1   26 1
     5    2    3 1
     6    2   27 1
     7    2   28 1
     8    3    4 1
     9    3   29 1
    10    3   30 1
    11    4   13 1
    12    4    5 1
    13    5    6 1
    14    5   31 1
    15    5   32 1
    16    6    7 1
    17    6   33 1
    18    6   34 1
    19    7   12 ar
    20    7    8 ar
    21    8    9 ar
    22    8   35 1
    23    9   10 ar
    24    9   36 1
    25   10   11 ar
    26   10   37 1
    27   11   17 1
    28   11   12 ar
    29   12   13 1
    30   13   14 1
    31   13   15 1
    32   15   16 1
    33   15   38 1
    34   15   39 1
    35   16   21 ar
    36   16   17 ar
    37   17   18 ar
    38   18   19 ar
    39   18   23 1
    40   19   20 ar
    41   19   22 1
    42   20   21 ar
    43   20   40 1
    44   21   41 1
    45   22   42 1
    46   23   43 1
@<TRIPOS>MOLECULE
ZINC00001575
   24    24     0     0     0
SMALL
USER_CHARGES

@<TRIPOS>ATOM
      1 C1         -0.0167    1.3782    0.0096 C.ar      1 <0>        -0.1076
      2 C2          1.1697    2.0867    0.0021 C.ar      1 <0>        -0.1315
      3 C3          2.3802    1.4100   -0.0131 C.ar      1 <0>         0.1448
      4 C4          2.3966    0.0221   -0.0208 C.ar      1 <0>        -0.1251
      5 C5          1.2075   -0.6816   -0.0132 C.ar      1 <0>        -0.0575
      6 C6          0.0021   -0.0041    0.0020 C.ar      1 <0>        -0.1153
      7 C7         -1.2934   -0.7739    0.0103 C.3       1 <0>        -0.0843
      8 C8         -1.7456   -1.0267   -1.4293 C.3       1 <0>        -0.0443
      9 H1         -0.9472   -1.5255   -1.9787 H         1 <0>         0.1337
     10 C9         -2.9735   -1.9005   -1.4241 C.2       1 <0>         0.4892
     11 O1         -4.0818   -1.3941   -1.3808 O.co2     1 <0>        -0.6660
     12 O2         -2.8586   -3.1136   -1.4631 O.co2     1 <0>        -0.6329
     13 N1         -2.0590    0.2544   -2.0763 N.4       1 <0>        -0.6155
     14 I1          4.2225   -1.0048   -0.0444 I         1 <0>        -0.0137
     15 O3          3.5483    2.1047   -0.0210 O.3       1 <0>        -0.4858
     16 H2         -0.9594    1.9048    0.0260 H         1 <0>         0.1345
     17 H3          1.1542    3.1666    0.0077 H         1 <0>         0.1431
     18 H4          1.2195   -1.7615   -0.0195 H         1 <0>         0.1415
     19 H5         -1.1462   -1.7274    0.5176 H         1 <0>         0.1184
     20 H6         -2.0554   -0.1972    0.5345 H         1 <0>         0.0988
     21 H7         -2.7981    0.7160   -1.5677 H         1 <0>         0.4326
     22 H8         -1.2369    0.8394   -2.0798 H         1 <0>         0.4116
     23 H9          3.8950    2.3012    0.8601 H         1 <0>         0.3993
     24 H10        -2.3572    0.0877   -3.0257 H         1 <0>         0.4321
@<TRIPOS>BOND
     1    1    6 ar
     2    1    2 ar
     3    1   16 1
     4    2    3 ar
     5    2   17 1
     6    3    4 ar
     7    3   15 1
     8    4    5 ar
     9    4   14 1
    10    5    6 ar
    11    5   18 1
    12    6    7 1
    13    7    8 1
    14    7   19 1
    15    7   20 1
    16    8    9 1
    17    8   10 1
    18    8   13 1
    19   10   11 2
    20   10   12 1
    21   13   21 1
    22   13   22 1
    23   13   24 1
    24   15   23 1
