@<TRIPOS>MOLECULE
ZINC24640039
   77    81     0     0     0
SMALL
USER_CHARGES
(2S)-2-[(5-dimethylamino-1-naphthyl)sulfonylamino]-3-[4-[(5-dimethylamino-1-naphthyl)sulfonyloxy]phenyl]propanoic acid
@<TRIPOS>ATOM
      1 C1         -5.0364   -0.1428    2.1471 C.3       1 <0>         0.0268
      2 N1         -3.5722   -0.0999    2.0367 N.pl3     1 <0>        -0.5096
      3 C2         -3.1284   -0.5928    0.7260 C.3       1 <0>         0.0263
      4 C3         -2.9724   -0.8175    3.0693 C.ar      1 <0>         0.1061
      5 C4         -3.2288   -2.1638    3.2213 C.ar      1 <0>        -0.1529
      6 C5         -2.6348   -2.8894    4.2492 C.ar      1 <0>        -0.0887
      7 C6         -1.7862   -2.2931    5.1316 C.ar      1 <0>        -0.0950
      8 C7         -1.4983   -0.9230    5.0118 C.ar      1 <0>         0.0689
      9 C8         -2.0922   -0.1745    3.9658 C.ar      1 <0>        -0.0499
     10 C9         -1.8084    1.1953    3.8512 C.ar      1 <0>        -0.0271
     11 C10        -0.9596    1.7844    4.7380 C.ar      1 <0>        -0.1583
     12 C11        -0.3701    1.0478    5.7635 C.ar      1 <0>         0.0034
     13 C12        -0.6266   -0.2809    5.9085 C.ar      1 <0>        -0.6634
     14 S1          0.1306   -1.1917    7.2130 S.o2      1 <0>         2.6935
     15 O1          0.9621   -0.2789    7.9163 O.2       1 <0>        -0.9656
     16 O2         -0.9059   -1.9251    7.8511 O.2       1 <0>        -0.9709
     17 N2          1.1364   -2.3055    6.5129 N.pl3     1 <0>        -1.0924
     18 C13         2.3139   -1.8602    5.7635 C.3       1 <0>         0.1154
     19 H1          2.5632   -0.8462    6.1093 H         1 <0>         0.0905
     20 C14         3.4733   -2.8266    6.0139 C.3       1 <0>        -0.0697
     21 C15         3.8763   -2.7626    7.4646 C.ar      1 <0>        -0.0380
     22 C16         4.8464   -1.8658    7.8724 C.ar      1 <0>        -0.0999
     23 C17         5.2136   -1.8012    9.2026 C.ar      1 <0>        -0.1116
     24 C18         4.6161   -2.6450   10.1277 C.ar      1 <0>         0.0406
     25 C19         3.6470   -3.5478    9.7150 C.ar      1 <0>        -0.0881
     26 C20         3.2793   -3.6046    8.3846 C.ar      1 <0>        -0.0997
     27 O3          4.9792   -2.5869   11.4360 O.3       1 <0>        -0.6533
     28 S2          6.1307   -3.5130   11.8006 S.o2      1 <0>         2.6745
     29 O4          6.2414   -3.4852   13.2170 O.2       1 <0>        -0.9334
     30 O5          5.9275   -4.7183   11.0758 O.2       1 <0>        -0.9511
     31 C21         7.6049   -2.7862   11.1658 C.ar      1 <0>        -0.6993
     32 C22         8.1159   -3.2039    9.9751 C.ar      1 <0>         0.0272
     33 C23         9.2806   -2.6412    9.4580 C.ar      1 <0>        -0.1557
     34 C24         9.9409   -1.6569   10.1289 C.ar      1 <0>        -0.0167
     35 C25         9.4435   -1.2006   11.3590 C.ar      1 <0>        -0.0583
     36 C26         8.2561   -1.7683   11.8833 C.ar      1 <0>         0.0363
     37 C27         7.7599   -1.3166   13.1184 C.ar      1 <0>        -0.1482
     38 C28         8.4143   -0.3333   13.7954 C.ar      1 <0>        -0.0807
     39 C29         9.5786    0.2363   13.2880 C.ar      1 <0>        -0.1560
     40 C30        10.1010   -0.1824   12.0831 C.ar      1 <0>         0.1129
     41 N3         11.2670    0.3943   11.5841 N.pl3     1 <0>        -0.5117
     42 C31        11.0948    1.8390   11.3813 C.3       1 <0>         0.0238
     43 C32        12.4095    0.1189   12.4655 C.3       1 <0>         0.0249
     44 C33         1.9917   -1.8327    4.2916 C.2       1 <0>         0.4489
     45 O6          0.8915   -2.1523    3.9079 O.co2     1 <0>        -0.6086
     46 O7          2.9271   -1.4532    3.4068 O.co2     1 <0>        -0.7622
     47 H2         -5.3406    0.2309    3.1359 H         1 <0>         0.0696
     48 H3         -5.3831   -1.1795    2.0243 H         1 <0>         0.0306
     49 H4         -5.4818    0.4881    1.3638 H         1 <0>         0.0718
     50 H5         -2.0306   -0.5498    0.6706 H         1 <0>         0.0761
     51 H6         -3.5605    0.0349   -0.0673 H         1 <0>         0.0715
     52 H7         -3.4618   -1.6326    0.5932 H         1 <0>         0.0312
     53 H8         -3.8985   -2.6605    2.5349 H         1 <0>         0.1163
     54 H9         -2.8500   -3.9431    4.3487 H         1 <0>         0.1223
     55 H10        -1.3344   -2.8730    5.9229 H         1 <0>         0.1259
     56 H11        -2.2582    1.7784    3.0612 H         1 <0>         0.1375
     57 H12        -0.7397    2.8377    4.6450 H         1 <0>         0.1279
     58 H13         0.3000    1.5387    6.4537 H         1 <0>         0.1370
     59 H14         0.8267   -3.3603    6.4748 H         1 <0>         0.4330
     60 H15         3.1571   -3.8506    5.7660 H         1 <0>         0.0823
     61 H16         4.3289   -2.5442    5.3829 H         1 <0>         0.1012
     62 H17         5.3144   -1.2122    7.1512 H         1 <0>         0.1411
     63 H18         5.9683   -1.0975    9.5214 H         1 <0>         0.1349
     64 H19         3.1802   -4.2055   10.4333 H         1 <0>         0.1376
     65 H20         2.5247   -4.3070    8.0629 H         1 <0>         0.1398
     66 H21         7.6111   -3.9832    9.4235 H         1 <0>         0.1457
     67 H22         9.6654   -2.9904    8.5112 H         1 <0>         0.1376
     68 H23        10.8430   -1.2299    9.7163 H         1 <0>         0.1447
     69 H24         6.8577   -1.7462   13.5280 H         1 <0>         0.1605
     70 H25         8.0234    0.0107   14.7415 H         1 <0>         0.1301
     71 H26        10.0786    1.0149   13.8450 H         1 <0>         0.1234
     72 H27        12.0282    2.2678   10.9878 H         1 <0>         0.0766
     73 H28        10.8475    2.3170   12.3407 H         1 <0>         0.0337
     74 H29        10.2797    2.0139   10.6636 H         1 <0>         0.0740
     75 H30        13.3147    0.5846   12.0487 H         1 <0>         0.0765
     76 H31        12.5590   -0.9681   12.5432 H         1 <0>         0.0721
     77 H32        12.2103    0.5340   13.4645 H         1 <0>         0.0333
@<TRIPOS>BOND
     1    1    2 1
     2    1   47 1
     3    1   48 1
     4    1   49 1
     5    2    3 1
     6    2    4 1
     7    3   50 1
     8    3   51 1
     9    3   52 1
    10    4    9 ar
    11    4    5 ar
    12    5    6 ar
    13    5   53 1
    14    6    7 ar
    15    6   54 1
    16    7    8 ar
    17    7   55 1
    18    8   13 ar
    19    8    9 ar
    20    9   10 ar
    21   10   11 ar
    22   10   56 1
    23   11   12 ar
    24   11   57 1
    25   12   13 ar
    26   12   58 1
    27   13   14 1
    28   14   15 2
    29   14   16 2
    30   14   17 1
    31   17   18 1
    32   17   59 1
    33   18   19 1
    34   18   20 1
    35   18   44 1
    36   20   21 1
    37   20   60 1
    38   20   61 1
    39   21   26 ar
    40   21   22 ar
    41   22   23 ar
    42   22   62 1
    43   23   24 ar
    44   23   63 1
    45   24   25 ar
    46   24   27 1
    47   25   26 ar
    48   25   64 1
    49   26   65 1
    50   27   28 1
    51   28   29 2
    52   28   30 2
    53   28   31 1
    54   31   36 ar
    55   31   32 ar
    56   32   33 ar
    57   32   66 1
    58   33   34 ar
    59   33   67 1
    60   34   35 ar
    61   34   68 1
    62   35   40 ar
    63   35   36 ar
    64   36   37 ar
    65   37   38 ar
    66   37   69 1
    67   38   39 ar
    68   38   70 1
    69   39   40 ar
    70   39   71 1
    71   40   41 1
    72   41   42 1
    73   41   43 1
    74   42   72 1
    75   42   73 1
    76   42   74 1
    77   43   75 1
    78   43   76 1
    79   43   77 1
    80   44   45 2
    81   44   46 1
@<TRIPOS>MOLECULE
ZINC18187616
   17    18     0     0     0
SMALL
USER_CHARGES

@<TRIPOS>ATOM
      1 C1         -0.0177    1.4577    0.0101 C.2       1 <0>        -0.1128
      2 C2          1.2635    1.8612   -0.0000 C.2       1 <0>        -0.0034
      3 N1          2.0916    0.7671   -0.0138 N.pl3     1 <0>        -0.5493
      4 H1          3.0609    0.8037   -0.0224 H         1 <0>         0.4206
      5 C3          1.3527   -0.3796   -0.0129 C.2       1 <0>         0.3463
      6 C4          0.0021   -0.0041    0.0020 C.2       1 <0>        -0.3228
      7 C5         -0.9899   -1.0091    0.0054 C.2       1 <0>         0.5837
      8 O1         -2.1740   -0.7197    0.0178 O.2       1 <0>        -0.5309
      9 N2         -0.5912   -2.3013   -0.0060 N.am      1 <0>        -0.6627
     10 H2         -1.2521   -3.0114   -0.0040 H         1 <0>         0.4148
     11 C6          0.7370   -2.6088   -0.0207 C.2       1 <0>         0.6555
     12 N3          1.6686   -1.6829   -0.0236 N.2       1 <0>        -0.5931
     13 N4          1.1129   -3.9287   -0.0320 N.pl3     1 <0>        -0.8224
     14 H3         -0.8928    2.0905    0.0258 H         1 <0>         0.1515
     15 H4          1.5919    2.8901    0.0018 H         1 <0>         0.1805
     16 H5          0.4378   -4.6252   -0.0295 H         1 <0>         0.4162
     17 H6          2.0536   -4.1650   -0.0426 H         1 <0>         0.4282
@<TRIPOS>BOND
     1    1    6 1
     2    1    2 2
     3    1   14 1
     4    2    3 1
     5    2   15 1
     6    3    4 1
     7    3    5 1
     8    5   12 1
     9    5    6 2
    10    6    7 1
    11    7    8 2
    12    7    9 am
    13    9   10 1
    14    9   11 1
    15   11   12 2
    16   11   13 1
    17   13   16 1
    18   13   17 1
@<TRIPOS>MOLECULE
ZINC18187616
   17    18     0     0     0
SMALL
USER_CHARGES

@<TRIPOS>ATOM
      1 C1         -0.0184    1.5029    0.0103 C.2       1 <0>        -0.0867
      2 C2          1.2645    1.8693    0.0000 C.2       1 <0>        -0.0172
      3 N1          2.1042    0.8034   -0.0532 N.pl3     1 <0>        -0.4926
      4 C3          1.4869   -0.3017   -0.2249 C.cat     1 <0>         0.4743
      5 C4          0.0021   -0.0041    0.0020 C.3       1 <0>        -0.1646
      6 H1         -0.3603   -0.4197    0.9423 H         1 <0>         0.1936
      7 C5         -0.7012   -0.5984   -1.1916 C.2       1 <0>         0.5320
      8 O1         -1.7711   -0.1558   -1.5613 O.2       1 <0>        -0.5230
      9 N2         -0.1311   -1.6161   -1.8350 N.2       1 <0>        -0.7073
     10 C6          1.0538   -2.1270   -1.5624 C.2       1 <0>         0.5746
     11 N3          1.8639   -1.5767   -0.5835 N.pl3     1 <0>        -0.6223
     12 N4          1.4885   -3.2155   -2.2562 N.2       1 <0>        -0.7826
     13 H2         -0.8849    2.1473    0.0259 H         1 <0>         0.1955
     14 H3          1.5972    2.8964    0.0306 H         1 <0>         0.2046
     15 H4          2.6194   -2.0414   -0.1910 H         1 <0>         0.4348
     16 H5          0.9280   -3.6079   -2.9438 H         1 <0>         0.3519
     17 H6          3.0681    0.8736    0.0298 H         1 <0>         0.4351
@<TRIPOS>BOND
     1    1    5 1
     2    1    2 2
     3    1   13 1
     4    2    3 1
     5    2   14 1
     6    3    4 2
     7    3   17 1
     8    4   11 1
     9    4    5 1
    10    5    6 1
    11    5    7 1
    12    7    8 2
    13    7    9 1
    14    9   10 2
    15   10   11 1
    16   10   12 1
    17   11   15 1
    18   12   16 1
@<TRIPOS>MOLECULE
ZINC18187616
   17    18     0     0     0
SMALL
USER_CHARGES

@<TRIPOS>ATOM
      1 C1         -0.0184    1.5029    0.0103 C.2       1 <0>        -0.0868
      2 C2          1.2645    1.8693    0.0000 C.2       1 <0>        -0.0171
      3 N1          2.1050    0.8030    0.0258 N.pl3     1 <0>        -0.4926
      4 C3          1.4909   -0.3040    0.1973 C.cat     1 <0>         0.4743
      5 C4          0.0021   -0.0041    0.0020 C.3       1 <0>        -0.1646
      6 H1         -0.3782   -0.4096   -0.9356 H         1 <0>         0.1936
      7 C5         -0.6784   -0.6112    1.2024 C.2       1 <0>         0.5320
      8 O1         -1.7413   -0.1733    1.5967 O.2       1 <0>        -0.5230
      9 N2         -0.0962   -1.6357    1.8238 N.2       1 <0>        -0.7073
     10 C6          1.0833   -2.1435    1.5231 C.2       1 <0>         0.5745
     11 N3          1.8746   -1.5827    0.5350 N.pl3     1 <0>        -0.6222
     12 N4          1.5310   -3.2394    2.1969 N.2       1 <0>        -0.7827
     13 H2         -0.8849    2.1473    0.0259 H         1 <0>         0.1955
     14 H3          1.5966    2.8967   -0.0258 H         1 <0>         0.2046
     15 H4          2.6221   -2.0434    0.1227 H         1 <0>         0.4348
     16 H5          0.9837   -3.6393    2.8908 H         1 <0>         0.3519
     17 H6          3.0671    0.8741   -0.0754 H         1 <0>         0.4351
@<TRIPOS>BOND
     1    1    5 1
     2    1    2 2
     3    1   13 1
     4    2    3 1
     5    2   14 1
     6    3    4 2
     7    3   17 1
     8    4   11 1
     9    4    5 1
    10    5    6 1
    11    5    7 1
    12    7    8 2
    13    7    9 1
    14    9   10 2
    15   10   11 1
    16   10   12 1
    17   11   15 1
    18   12   16 1
@<TRIPOS>MOLECULE
ZINC18187616
   17    18     0     0     0
SMALL
USER_CHARGES

@<TRIPOS>ATOM
      1 C1         -0.0184    1.5054    0.0103 C.3       1 <0>        -0.0959
      2 C2          1.4540    1.8671   -0.0018 C.2       1 <0>         0.1940
      3 N1          2.1224    0.7667   -0.0141 N.2       1 <0>        -0.4814
      4 C3          1.3477   -0.3543   -0.0127 C.2       1 <0>         0.3807
      5 C4          0.0021   -0.0041    0.0020 C.2       1 <0>        -0.3786
      6 C5         -0.9772   -0.9935    0.0057 C.2       1 <0>         0.5742
      7 O1         -2.1617   -0.6996    0.0181 O.2       1 <0>        -0.5356
      8 N2         -0.5854   -2.2880   -0.0054 N.am      1 <0>        -0.6536
      9 H1         -1.2474   -2.9970   -0.0035 H         1 <0>         0.4176
     10 C6          0.7412   -2.5922   -0.0197 C.2       1 <0>         0.6548
     11 N3          1.6691   -1.6613   -0.0232 N.2       1 <0>        -0.5724
     12 N4          1.1207   -3.9082   -0.0308 N.pl3     1 <0>        -0.8156
     13 H2         -0.4997    1.8793    0.9140 H         1 <0>         0.1263
     14 H3         -0.5168    1.8889   -0.8799 H         1 <0>         0.1263
     15 H4          1.8666    2.8651   -0.0007 H         1 <0>         0.2096
     16 H5          0.4480   -4.6070   -0.0284 H         1 <0>         0.4179
     17 H6          2.0622   -4.1414   -0.0410 H         1 <0>         0.4317
@<TRIPOS>BOND
     1    1    5 1
     2    1    2 1
     3    1   13 1
     4    1   14 1
     5    2    3 2
     6    2   15 1
     7    3    4 1
     8    4   11 1
     9    4    5 2
    10    5    6 1
    11    6    7 2
    12    6    8 am
    13    8    9 1
    14    8   10 1
    15   10   11 2
    16   10   12 1
    17   12   16 1
    18   12   17 1
@<TRIPOS>MOLECULE
ZINC03831317
   38    41     0     0     0
SMALL
USER_CHARGES

@<TRIPOS>ATOM
      1 C1         -0.0166    1.3756    0.0096 C.ar      1 <0>        -0.1205
      2 C2          1.1685    2.0902    0.0021 C.ar      1 <0>        -0.0738
      3 C3          2.3837    1.4259   -0.0135 C.ar      1 <0>        -0.1060
      4 C4          2.4141    0.0511   -0.0211 C.ar      1 <0>        -0.0809
      5 C5          1.2226   -0.6799   -0.0132 C.ar      1 <0>        -0.1884
      6 C6          0.0021   -0.0041    0.0020 C.ar      1 <0>        -0.0296
      7 C7          1.5769   -2.1110   -0.0238 C.2       1 <0>         0.5250
      8 O1          0.7785   -3.0264   -0.0207 O.2       1 <0>        -0.4400
      9 O2          2.9126   -2.2536   -0.0376 O.3       1 <0>        -0.2998
     10 C8          3.5293   -0.9632   -0.0371 C.3       1 <0>         0.2449
     11 C9          4.3892   -0.8032    1.1901 C.ar      1 <0>        -0.1042
     12 C10         4.5259    0.4399    1.7799 C.ar      1 <0>        -0.0908
     13 C11         5.3140    0.5892    2.9046 C.ar      1 <0>        -0.1433
     14 C12         5.9683   -0.5095    3.4425 C.ar      1 <0>         0.1182
     15 C13         5.8292   -1.7558    2.8492 C.ar      1 <0>        -0.1434
     16 C14         5.0357   -1.9009    1.7276 C.ar      1 <0>        -0.0715
     17 O3          6.7445   -0.3651    4.5487 O.3       1 <0>        -0.4984
     18 C15         4.3652   -0.7908   -1.2790 C.ar      1 <0>        -0.1048
     19 C16         4.4996    0.4602   -1.8523 C.ar      1 <0>        -0.0905
     20 C17         5.2650    0.6208   -2.9911 C.ar      1 <0>        -0.1433
     21 C18         5.8994   -0.4744   -3.5593 C.ar      1 <0>         0.1186
     22 C19         5.7632   -1.7285   -2.9819 C.ar      1 <0>        -0.1434
     23 C20         5.0010   -1.8829   -1.8401 C.ar      1 <0>        -0.0713
     24 O4          6.6525   -0.3191   -4.6798 O.3       1 <0>        -0.4982
     25 H1         -0.9605    1.9002    0.0259 H         1 <0>         0.1415
     26 H2          1.1457    3.1699    0.0081 H         1 <0>         0.1421
     27 H3          3.3064    1.9871   -0.0200 H         1 <0>         0.1416
     28 H4         -0.9246   -0.5588    0.0082 H         1 <0>         0.1404
     29 H5          4.0163    1.2949    1.3607 H         1 <0>         0.1355
     30 H6          5.4210    1.5605    3.3645 H         1 <0>         0.1348
     31 H7          6.3375   -2.6127    3.2661 H         1 <0>         0.1350
     32 H8          4.9236   -2.8717    1.2679 H         1 <0>         0.1350
     33 H9          6.2692   -0.4890    5.3816 H         1 <0>         0.3945
     34 H10         4.0056    1.3125   -1.4097 H         1 <0>         0.1352
     35 H11         5.3691    1.5981   -3.4389 H         1 <0>         0.1349
     36 H12         6.2561   -2.5826   -3.4223 H         1 <0>         0.1351
     37 H13         4.8983   -2.8582   -1.3877 H         1 <0>         0.1349
     38 H14         7.5825   -0.1209   -4.5042 H         1 <0>         0.3945
@<TRIPOS>BOND
     1    1    6 ar
     2    1    2 ar
     3    1   25 1
     4    2    3 ar
     5    2   26 1
     6    3    4 ar
     7    3   27 1
     8    4   10 1
     9    4    5 ar
    10    5    6 ar
    11    5    7 1
    12    6   28 1
    13    7    8 2
    14    7    9 1
    15    9   10 1
    16   10   11 1
    17   10   18 1
    18   11   16 ar
    19   11   12 ar
    20   12   13 ar
    21   12   29 1
    22   13   14 ar
    23   13   30 1
    24   14   15 ar
    25   14   17 1
    26   15   16 ar
    27   15   31 1
    28   16   32 1
    29   17   33 1
    30   18   23 ar
    31   18   19 ar
    32   19   20 ar
    33   19   34 1
    34   20   21 ar
    35   20   35 1
    36   21   22 ar
    37   21   24 1
    38   22   23 ar
    39   22   36 1
    40   23   37 1
    41   24   38 1
