@<TRIPOS>MOLECULE
ZINC31962397
   19    18     0     0     0
SMALL
USER_CHARGES
3-phosphonopropylphosphonic acid
@<TRIPOS>ATOM
      1 C1         -2.3422    1.7692    1.4612 C.3       1 <0>        -0.0772
      2 C2         -0.8730    2.1937    1.5107 C.3       1 <0>        -0.7215
      3 P1         -0.0198    1.6058    0.0109 P.3       1 <0>         2.2729
      4 O1         -0.7356    2.0960   -1.1881 O.2       1 <0>        -1.0898
      5 O2          0.0021   -0.0041    0.0020 O.3       1 <0>        -1.1159
      6 O3          1.4907    2.1630   -0.0006 O.3       1 <0>        -0.9385
      7 C3         -3.0583    2.2626    2.7200 C.3       1 <0>        -0.7254
      8 P2         -4.8087    1.7569    2.6610 P.3       1 <0>         2.2866
      9 O4         -4.8928    0.2917    2.4702 O.2       1 <0>        -1.0906
     10 O5         -5.5309    2.1606    4.0422 O.3       1 <0>        -1.1310
     11 O6         -5.5412    2.5006    1.4351 O.3       1 <0>        -0.9326
     12 H1         -2.8204    2.2063    0.5722 H         1 <0>         0.0660
     13 H2         -2.4054    0.6722    1.4095 H         1 <0>         0.0811
     14 H3         -0.8098    3.2907    1.5623 H         1 <0>         0.0541
     15 H4         -0.3948    1.7567    2.3997 H         1 <0>         0.0602
     16 H5          2.1636    1.9109   -0.8335 H         1 <0>         0.4367
     17 H6         -2.5801    1.8255    3.6090 H         1 <0>         0.0743
     18 H7         -2.9951    3.3596    2.7717 H         1 <0>         0.0546
     19 H8         -6.6084    2.3188    1.2401 H         1 <0>         0.4361
@<TRIPOS>BOND
     1    1    2 1
     2    1    7 1
     3    1   12 1
     4    1   13 1
     5    2    3 1
     6    2   14 1
     7    2   15 1
     8    3    4 2
     9    3    5 1
    10    3    6 1
    11    6   16 1
    12    7    8 1
    13    7   17 1
    14    7   18 1
    15    8    9 2
    16    8   10 1
    17    8   11 1
    18   11   19 1
@<TRIPOS>MOLECULE
ZINC00477382
   29    32     0     0     0
SMALL
USER_CHARGES
chloro-phenyl-BLAH
@<TRIPOS>ATOM
      1 C1          0.2326   -3.5611   -0.0192 C.ar      1 <0>        -0.0937
      2 C2          1.5436   -3.6870   -0.4434 C.ar      1 <0>        -0.1147
      3 C3          2.3788   -2.5891   -0.4482 C.ar      1 <0>        -0.0687
      4 C4          1.8986   -1.3489   -0.0238 C.ar      1 <0>        -0.0350
      5 C5          0.5765   -1.2300    0.4084 C.ar      1 <0>        -0.0961
      6 C6         -0.2498   -2.3347    0.4022 C.ar      1 <0>        -0.1167
      7 C7          2.7877   -0.1683   -0.0262 C.2       1 <0>         0.2352
      8 N1          3.9582   -0.0671    0.5773 N.2       1 <0>        -0.2349
      9 N2          4.4627    1.0983    0.3690 N.2       1 <0>        -0.2158
     10 C8          3.6435    1.8121   -0.3810 C.2       1 <0>         0.1413
     11 N3          2.5536    1.0175   -0.6505 N.pl3     1 <0>        -0.3817
     12 C9          1.5278    1.5220   -1.4271 C.ar      1 <0>         0.0951
     13 C10         0.4094    0.7544   -1.7241 C.ar      1 <0>        -0.1311
     14 C11        -0.5979    1.2787   -2.5064 C.ar      1 <0>        -0.0733
     15 C12        -0.5094    2.5759   -2.9911 C.ar      1 <0>        -0.1054
     16 C13         0.5902    3.3529   -2.7089 C.ar      1 <0>        -0.0515
     17 C14         1.6258    2.8355   -1.9215 C.ar      1 <0>         0.0889
     18 N4          2.7154    3.5913   -1.6359 N.2       1 <0>        -0.4278
     19 C15         3.6924    3.1263   -0.9027 C.2       1 <0>         0.2809
     20 Cl1         5.0662    4.1327   -0.5656 Cl        1 <0>         0.0396
     21 H1         -0.4171   -4.4238   -0.0175 H         1 <0>         0.1331
     22 H2          1.9140   -4.6472   -0.7712 H         1 <0>         0.1361
     23 H3          3.4018   -2.6887   -0.7798 H         1 <0>         0.1340
     24 H4          0.2001   -0.2744    0.7422 H         1 <0>         0.1263
     25 H5         -1.2742   -2.2431    0.7318 H         1 <0>         0.1351
     26 H6          0.3306   -0.2543   -1.3464 H         1 <0>         0.1525
     27 H7         -1.4642    0.6773   -2.7391 H         1 <0>         0.1461
     28 H8         -1.3073    2.9767   -3.5987 H         1 <0>         0.1477
     29 H9          0.6547    4.3598   -3.0942 H         1 <0>         0.1547
@<TRIPOS>BOND
     1    1    6 ar
     2    1    2 ar
     3    1   21 1
     4    2    3 ar
     5    2   22 1
     6    3    4 ar
     7    3   23 1
     8    4    5 ar
     9    4    7 1
    10    5    6 ar
    11    5   24 1
    12    6   25 1
    13    7   11 1
    14    7    8 2
    15    8    9 1
    16    9   10 2
    17   10   19 1
    18   10   11 1
    19   11   12 1
    20   12   17 ar
    21   12   13 ar
    22   13   14 ar
    23   13   26 1
    24   14   15 ar
    25   14   27 1
    26   15   16 ar
    27   15   28 1
    28   16   17 ar
    29   16   29 1
    30   17   18 1
    31   18   19 2
    32   19   20 1
@<TRIPOS>MOLECULE
ZINC17421407
   52    54     0     0     0
SMALL
USER_CHARGES
(2S)-2-[[4-[(2-amino-4-hydroxy-pteridin-6-yl)methyl-methyl-amino]benzoyl]amino]pentanedioic acid
@<TRIPOS>ATOM
      1 C1          4.8419    5.6813    0.0160 C.3       1 <0>         0.0860
      2 N1          4.8552    4.2165   -0.0006 N.pl3     1 <0>        -0.6255
      3 C2          6.1304    3.4958   -0.0288 C.3       1 <0>         0.1797
      4 C3          6.5452    3.2645   -1.4590 C.ar      1 <0>         0.0151
      5 C4          7.4122    4.1636   -2.0805 C.ar      1 <0>         0.1602
      6 N2          7.7754    3.9908   -3.3333 N.ar      1 <0>        -0.4482
      7 C5          7.3263    2.9303   -4.0098 C.ar      1 <0>         0.3601
      8 C6          6.4499    2.0166   -3.3734 C.ar      1 <0>        -0.0510
      9 N3          6.0863    2.2172   -2.1087 N.ar      1 <0>        -0.3208
     10 C7          5.9845    0.9031   -4.1185 C.2       1 <0>         0.5193
     11 N4          6.3896    0.7708   -5.3697 N.am      1 <0>        -0.6225
     12 C8          7.2174    1.6506   -5.9276 C.2       1 <0>         0.6616
     13 N5          7.6807    2.7036   -5.2811 N.2       1 <0>        -0.5758
     14 N6          7.6080    1.4536   -7.2383 N.pl3     1 <0>        -0.8426
     15 O1          5.1435    0.0009   -3.5636 O.2       1 <0>        -0.5142
     16 C9          3.6575    3.5102    0.0104 C.ar      1 <0>         0.2147
     17 C10         2.4466    4.1965    0.0372 C.ar      1 <0>        -0.2073
     18 C11         1.2596    3.5005    0.0477 C.ar      1 <0>        -0.0249
     19 C12         1.2706    2.1027    0.0319 C.ar      1 <0>        -0.1594
     20 C13         2.4883    1.4163    0.0112 C.ar      1 <0>        -0.0366
     21 C14         3.6718    2.1181   -0.0049 C.ar      1 <0>        -0.1795
     22 C15        -0.0001    1.3534    0.0429 C.2       1 <0>         0.5586
     23 O2         -1.0585    1.9517    0.0608 O.2       1 <0>        -0.5654
     24 N7          0.0121    0.0057    0.0277 N.am      1 <0>        -0.6952
     25 C16        -1.2497   -0.7384    0.0387 C.3       1 <0>         0.1046
     26 H1         -1.9846   -0.1536   -0.5339 H         1 <0>         0.0827
     27 C17        -1.0346   -2.1166   -0.5897 C.3       1 <0>        -0.0839
     28 C18        -0.6743   -1.9527   -2.0676 C.3       1 <0>        -0.1525
     29 C19        -0.4624   -3.3103   -2.6865 C.2       1 <0>         0.4627
     30 O3         -0.5868   -4.3067   -2.0146 O.co2     1 <0>        -0.6398
     31 O4         -0.1355   -3.4125   -3.9845 O.co2     1 <0>        -0.7924
     32 C20        -1.7237   -0.9027    1.4598 C.2       1 <0>         0.4652
     33 O5         -1.0739   -0.4452    2.3700 O.co2     1 <0>        -0.6394
     34 O6         -2.8674   -1.5573    1.7145 O.co2     1 <0>        -0.7727
     35 H2          3.8017    6.0383    0.0364 H         1 <0>         0.0832
     36 H3          5.3429    6.0627   -0.8860 H         1 <0>         0.0474
     37 H4          5.3712    6.0426    0.9100 H         1 <0>         0.0559
     38 H5          6.8997    4.0915    0.4844 H         1 <0>         0.0985
     39 H6          6.0158    2.5277    0.4809 H         1 <0>         0.1029
     40 H7          7.7516    4.9507   -1.5655 H         1 <0>         0.1607
     41 H8          7.2353    0.5833   -7.7984 H         1 <0>         0.4417
     42 H9          6.0276   -0.0895   -5.9518 H         1 <0>         0.4567
     43 H10         8.2916    2.1671   -7.7217 H         1 <0>         0.4565
     44 H11         2.4388    5.2764    0.0493 H         1 <0>         0.1225
     45 H12         0.3205    4.0335    0.0677 H         1 <0>         0.1308
     46 H13         2.5000    0.3364    0.0035 H         1 <0>         0.1273
     47 H14         4.6129    1.5885   -0.0254 H         1 <0>         0.1302
     48 H15         0.9696   -0.5355    0.0070 H         1 <0>         0.4059
     49 H16        -0.2160   -2.6338   -0.0678 H         1 <0>         0.0578
     50 H17        -1.9577   -2.7083   -0.5007 H         1 <0>         0.0830
     51 H18        -1.4931   -1.4355   -2.5894 H         1 <0>         0.0586
     52 H19         0.2487   -1.3610   -2.1565 H         1 <0>         0.0593
@<TRIPOS>BOND
     1    1    2 1
     2    1   35 1
     3    1   36 1
     4    1   37 1
     5    2    3 1
     6    2   16 1
     7    3   38 1
     8    3   39 1
     9    3    4 1
    10    4    9 ar
    11    4    5 ar
    12    5   40 1
    13    5    6 ar
    14    6    7 ar
    15    7    8 ar
    16    7   13 1
    17    8   10 1
    18    8    9 ar
    19   10   15 2
    20   10   11 am
    21   11   12 1
    22   11   42 1
    23   12   13 2
    24   12   14 1
    25   14   41 1
    26   14   43 1
    27   16   21 ar
    28   16   17 ar
    29   17   18 ar
    30   17   44 1
    31   18   19 ar
    32   18   45 1
    33   19   20 ar
    34   19   22 1
    35   20   21 ar
    36   20   46 1
    37   21   47 1
    38   22   23 2
    39   22   24 am
    40   24   25 1
    41   24   48 1
    42   25   26 1
    43   25   27 1
    44   25   32 1
    45   27   28 1
    46   27   49 1
    47   27   50 1
    48   28   29 1
    49   28   51 1
    50   28   52 1
    51   29   30 2
    52   29   31 1
    53   32   33 2
    54   32   34 1
@<TRIPOS>MOLECULE
ZINC36175770
   59    63     0     0     0
SMALL
USER_CHARGES

@<TRIPOS>ATOM
      1 C1         -0.0184    1.5028    0.0103 C.3       1 <0>        -0.1120
      2 C2          0.0021   -0.0041    0.0020 C.2       1 <0>         0.3967
      3 N1          0.0048   -0.6148   -1.1450 N.2       1 <0>        -0.5255
      4 C3          0.0227   -1.9611   -1.2330 C.ar      1 <0>         0.1850
      5 C4          0.0260   -2.6149   -2.4783 C.ar      1 <0>        -0.1172
      6 C5          0.0444   -3.9657   -2.5660 C.ar      1 <0>        -0.0517
      7 C6          0.0606   -4.7762   -1.4121 C.ar      1 <0>        -0.0684
      8 C7          0.0797   -6.1761   -1.5078 C.ar      1 <0>        -0.1011
      9 C8          0.0954   -6.9314   -0.3736 C.ar      1 <0>        -0.0993
     10 C9          0.0929   -6.3351    0.8837 C.ar      1 <0>        -0.0839
     11 C10         0.0745   -4.9773    1.0131 C.ar      1 <0>        -0.0937
     12 C11         0.0581   -4.1723   -0.1305 C.ar      1 <0>         0.0047
     13 C12         0.0387   -2.7179   -0.0472 C.ar      1 <0>        -0.1999
     14 C13         0.0353   -2.0080    1.2317 C.2       1 <0>         0.5432
     15 N2          0.0222   -0.6546    1.1925 N.am      1 <0>        -0.6436
     16 O1          0.0487   -2.6106    2.2903 O.2       1 <0>        -0.5025
     17 C14         0.1100   -7.2001    2.1176 C.3       1 <0>         0.1647
     18 N3          1.4967   -7.4617    2.5113 N.pl3     1 <0>        -0.7414
     19 C15         1.7663   -8.2429    3.6295 C.ar      1 <0>         0.2264
     20 C16         0.7183   -8.7813    4.3716 C.ar      1 <0>        -0.2079
     21 C17         0.9790   -9.5554    5.4786 C.ar      1 <0>        -0.0080
     22 C18         2.3013   -9.8032    5.8612 C.ar      1 <0>        -0.1834
     23 C19         3.3490   -9.2588    5.1106 C.ar      1 <0>        -0.0343
     24 C20         3.0852   -8.4915    4.0038 C.ar      1 <0>        -0.1779
     25 C21         4.6267   -9.7069    5.7756 C.3       1 <0>         0.1401
     26 N4          4.2245  -10.5231    6.9267 N.am      1 <0>        -0.5807
     27 C22         2.8823  -10.5757    6.9719 C.2       1 <0>         0.5645
     28 O2          2.2390  -11.1762    7.8111 O.2       1 <0>        -0.5158
     29 C23         5.1360  -11.1736    7.8713 C.3       1 <0>         0.0974
     30 H1          6.1665  -10.9586    7.5884 H         1 <0>         0.0731
     31 C24         4.8729  -10.6426    9.2818 C.3       1 <0>        -0.0874
     32 C25         5.2238   -9.1545    9.3403 C.3       1 <0>        -0.1732
     33 C26         4.9647   -8.6315   10.7296 C.2       1 <0>         0.4918
     34 O3          4.5388   -9.3796   11.5931 O.co2     1 <0>        -0.6947
     35 O4          5.1809   -7.4602   10.9903 O.co2     1 <0>        -0.7243
     36 C27         4.9081  -12.6630    7.8446 C.2       1 <0>         0.4963
     37 O5          4.0627  -13.1372    7.1051 O.co2     1 <0>        -0.6824
     38 O6          5.5692  -13.3938    8.5625 O.co2     1 <0>        -0.7018
     39 H2          1.0042    1.8801    0.0026 H         1 <0>         0.1000
     40 H3         -0.5455    1.8639   -0.8728 H         1 <0>         0.1042
     41 H4         -0.5286    1.8543    0.9071 H         1 <0>         0.0877
     42 H5          0.0132   -2.0267   -3.3839 H         1 <0>         0.1393
     43 H6          0.0464   -4.4323   -3.5400 H         1 <0>         0.1375
     44 H7          0.0816   -6.6531   -2.4767 H         1 <0>         0.1324
     45 H8          0.1097   -8.0085   -0.4517 H         1 <0>         0.1302
     46 H9          0.0724   -4.5259    1.9943 H         1 <0>         0.1580
     47 H10        -0.4072   -6.6870    2.9282 H         1 <0>         0.0712
     48 H11        -0.3919   -8.1443    1.9064 H         1 <0>         0.0711
     49 H12         2.2267   -7.0898    1.9920 H         1 <0>         0.3984
     50 H13        -0.3031   -8.5902    4.0772 H         1 <0>         0.1217
     51 H14         0.1635   -9.9710    6.0519 H         1 <0>         0.1275
     52 H15         3.8985   -8.0779    3.4261 H         1 <0>         0.1214
     53 H16         5.2207  -10.3029    5.0827 H         1 <0>         0.0845
     54 H17         5.1980   -8.8414    6.1112 H         1 <0>         0.0864
     55 H18         3.8203  -10.7777    9.5305 H         1 <0>         0.0692
     56 H19         5.4882  -11.1893    9.9965 H         1 <0>         0.0725
     57 H20         6.2764   -9.0193    9.0916 H         1 <0>         0.0463
     58 H21         4.6086   -8.6078    8.6256 H         1 <0>         0.0478
     59 H22         0.0232   -0.1477    2.0195 H         1 <0>         0.4209
@<TRIPOS>BOND
     1    1    2 1
     2    1   39 1
     3    1   40 1
     4    1   41 1
     5    2   15 1
     6    2    3 2
     7    3    4 1
     8    4   13 ar
     9    4    5 ar
    10    5    6 ar
    11    5   42 1
    12    6    7 ar
    13    6   43 1
    14    7   12 ar
    15    7    8 ar
    16    8    9 ar
    17    8   44 1
    18    9   10 ar
    19    9   45 1
    20   10   11 ar
    21   10   17 1
    22   11   12 ar
    23   11   46 1
    24   12   13 ar
    25   13   14 1
    26   14   15 am
    27   14   16 2
    28   15   59 1
    29   17   18 1
    30   17   47 1
    31   17   48 1
    32   18   19 1
    33   18   49 1
    34   19   24 ar
    35   19   20 ar
    36   20   21 ar
    37   20   50 1
    38   21   22 ar
    39   21   51 1
    40   22   27 1
    41   22   23 ar
    42   23   24 ar
    43   23   25 1
    44   24   52 1
    45   25   26 1
    46   25   53 1
    47   25   54 1
    48   26   27 am
    49   26   29 1
    50   27   28 2
    51   29   30 1
    52   29   31 1
    53   29   36 1
    54   31   32 1
    55   31   55 1
    56   31   56 1
    57   32   33 1
    58   32   57 1
    59   32   58 1
    60   33   34 2
    61   33   35 1
    62   36   37 2
    63   36   38 1
@<TRIPOS>MOLECULE
ZINC18279672
   52    54     0     0     0
SMALL
USER_CHARGES
(2S)-2-[[5-[methyl-[(2-methyl-4-oxo-3H-quinazolin-6-yl)methyl]amino]thiophene-2-carbonyl]amino]pentanedioic acid
@<TRIPOS>ATOM
      1 C1         10.3914    0.6209   -2.9939 C.3       1 <0>        -0.1098
      2 C2          9.9324    1.6032   -1.9474 C.2       1 <0>         0.3866
      3 N1         10.8080    2.5530   -1.5269 N.am      1 <0>        -0.6544
      4 H1         11.7018    2.5827   -1.9025 H         1 <0>         0.4157
      5 C3         10.4445    3.4586   -0.5889 C.2       1 <0>         0.5541
      6 O1         11.2187    4.3151   -0.2033 O.2       1 <0>        -0.5194
      7 C4          9.0777    3.3677   -0.0542 C.ar      1 <0>        -0.2041
      8 C5          8.6044    4.2514    0.9136 C.ar      1 <0>        -0.0276
      9 C6          7.3145    4.1207    1.3792 C.ar      1 <0>        -0.1286
     10 C7          6.4876    3.1147    0.8963 C.ar      1 <0>        -0.0507
     11 C8          6.9345    2.2343   -0.0630 C.ar      1 <0>        -0.0992
     12 C9          8.2378    2.3468   -0.5515 C.ar      1 <0>         0.1569
     13 N2          8.7202    1.4988   -1.4941 N.2       1 <0>        -0.5098
     14 C10         6.7981    5.0737    2.4262 C.3       1 <0>         0.1624
     15 N3          6.1861    6.2329    1.7721 N.pl3     1 <0>        -0.5801
     16 C11         6.9998    7.4090    1.4544 C.3       1 <0>         0.0999
     17 C12         4.8379    6.2170    1.4541 C.2       1 <0>         0.1191
     18 C13         4.0888    7.2017    0.8433 C.2       1 <0>        -0.2745
     19 C14         2.7578    6.9738    0.6212 C.2       1 <0>        -0.0340
     20 C15         2.2441    5.7510    1.0309 C.2       1 <0>        -0.2445
     21 S1          3.6794    4.9577    1.7328 S.3       1 <0>         0.1263
     22 C16         0.9186    5.2612    0.9245 C.2       1 <0>         0.6013
     23 O2          0.0538    5.9506    0.4145 O.2       1 <0>        -0.5485
     24 N4          0.6151    4.0324    1.3875 N.am      1 <0>        -0.6859
     25 C17        -0.7552    3.5260    1.2775 C.3       1 <0>         0.1006
     26 H2         -1.2033    3.8884    0.3523 H         1 <0>         0.0870
     27 C18        -0.7345    1.9962    1.2691 C.3       1 <0>        -0.0862
     28 C19        -0.0184    1.5028    0.0103 C.3       1 <0>        -0.1531
     29 C20         0.0021   -0.0041    0.0020 C.2       1 <0>         0.4619
     30 O3         -0.5042   -0.6201    0.9098 O.co2     1 <0>        -0.6390
     31 C21        -1.5658    4.0110    2.4518 C.2       1 <0>         0.4651
     32 O4         -1.0516    4.7080    3.2942 O.co2     1 <0>        -0.6388
     33 H3         10.8333   -0.2486   -2.5072 H         1 <0>         0.0972
     34 H4          9.5388    0.3061   -3.5957 H         1 <0>         0.1058
     35 H5         11.1341    1.0945   -3.6359 H         1 <0>         0.0837
     36 H6          9.2443    5.0328    1.2961 H         1 <0>         0.1350
     37 H7          5.4806    3.0240    1.2757 H         1 <0>         0.1416
     38 H8          6.2812    1.4583   -0.4338 H         1 <0>         0.1499
     39 H9          7.6246    5.4055    3.0547 H         1 <0>         0.0951
     40 H10         6.0536    4.5687    3.0417 H         1 <0>         0.0926
     41 H11         6.9800    8.1025    2.2951 H         1 <0>         0.0543
     42 H12         8.0272    7.0991    1.2632 H         1 <0>         0.0687
     43 H13         6.5977    7.9004    0.5685 H         1 <0>         0.0705
     44 H14         4.5442    8.1348    0.5463 H         1 <0>         0.1271
     45 H15         2.1325    7.7151    0.1461 H         1 <0>         0.1421
     46 H16         1.3039    3.4833    1.7937 H         1 <0>         0.3879
     47 H17        -1.7571    1.6189    1.2768 H         1 <0>         0.0849
     48 H18        -0.2073    1.6351    2.1522 H         1 <0>         0.0569
     49 H19         1.0042    1.8801    0.0026 H         1 <0>         0.0573
     50 H20        -0.5455    1.8639   -0.8728 H         1 <0>         0.0608
     51 O5          0.5827   -0.6618   -1.0138 O.co2     1 <0>        -0.7903
     52 O6         -2.8590    3.6685    2.5619 O.co2     1 <0>        -0.7696
@<TRIPOS>BOND
     1    1    2 1
     2    1   33 1
     3    1   34 1
     4    1   35 1
     5    2   13 2
     6    2    3 1
     7    3    4 1
     8    3    5 am
     9    5    6 2
    10    5    7 1
    11    7   12 ar
    12    7    8 ar
    13    8    9 ar
    14    8   36 1
    15    9   10 ar
    16    9   14 1
    17   10   11 ar
    18   10   37 1
    19   11   12 ar
    20   11   38 1
    21   12   13 1
    22   14   15 1
    23   14   39 1
    24   14   40 1
    25   15   16 1
    26   15   17 1
    27   16   41 1
    28   16   42 1
    29   16   43 1
    30   17   21 1
    31   17   18 2
    32   18   19 1
    33   18   44 1
    34   19   20 2
    35   19   45 1
    36   20   21 1
    37   20   22 1
    38   22   23 2
    39   22   24 am
    40   24   25 1
    41   24   46 1
    42   25   26 1
    43   25   27 1
    44   25   31 1
    45   27   28 1
    46   27   47 1
    47   27   48 1
    48   28   29 1
    49   28   49 1
    50   28   50 1
    51   29   30 2
    52   29   51 1
    53   31   32 2
    54   31   52 1
@<TRIPOS>MOLECULE
ZINC01540998
   50    52     0     0     0
SMALL
USER_CHARGES

@<TRIPOS>ATOM
      1 C1         -0.0167    1.3794    0.0096 C.ar      1 <0>        -0.1237
      2 C2          1.1667    2.0884    0.0021 C.ar      1 <0>        -0.0650
      3 C3          2.3848    1.4070   -0.0132 C.ar      1 <0>        -0.1108
      4 C4          2.3966    0.0113   -0.0208 C.ar      1 <0>        -0.0853
      5 C5          1.2061   -0.6856   -0.0132 C.ar      1 <0>        -0.1248
      6 C6          0.0021   -0.0041    0.0020 C.ar      1 <0>        -0.0756
      7 C7         -1.2946   -0.7719    0.0103 C.3       1 <0>        -0.0645
      8 C8         -1.7472   -1.0241   -1.4293 C.3       1 <0>        -0.0478
      9 C9         -3.0439   -1.7919   -1.4210 C.2       1 <0>        -0.0685
     10 C10        -3.1874   -3.1243   -1.5149 C.2       1 <0>        -0.0065
     11 N1         -4.5200   -3.4490   -1.4711 N.pl3     1 <0>        -0.5467
     12 H1         -4.8743   -4.3505   -1.5209 H         1 <0>         0.4184
     13 C11        -5.2735   -2.3187   -1.3465 C.2       1 <0>         0.3387
     14 C12        -4.3891   -1.2318   -1.3029 C.2       1 <0>        -0.3095
     15 C13        -4.9114    0.0734   -1.1699 C.2       1 <0>         0.5795
     16 O1         -4.1726    1.0423   -1.1322 O.2       1 <0>        -0.5172
     17 N2         -6.2532    0.2199   -1.0861 N.am      1 <0>        -0.6639
     18 H2         -6.6382    1.1055   -0.9942 H         1 <0>         0.4126
     19 C14        -7.0663   -0.8737   -1.1307 C.2       1 <0>         0.6511
     20 N3         -6.5926   -2.0916   -1.2621 N.2       1 <0>        -0.5927
     21 N4         -8.4242   -0.6953   -1.0434 N.pl3     1 <0>        -0.8265
     22 C15         3.6569    2.1603   -0.0218 C.2       1 <0>         0.5510
     23 O2          3.6435    3.3757   -0.0155 O.2       1 <0>        -0.5556
     24 N5          4.8314    1.4994   -0.0366 N.am      1 <0>        -0.6767
     25 C16         6.0919    2.2459   -0.0451 C.3       1 <0>         0.0726
     26 H3          5.9814    3.1523    0.5501 H         1 <0>         0.0776
     27 C17         7.2027    1.3778    0.5494 C.3       1 <0>        -0.0801
     28 C18         6.9032    1.1060    2.0250 C.3       1 <0>        -0.1779
     29 C19         7.9973    0.2510    2.6105 C.2       1 <0>         0.4911
     30 O3          8.9302   -0.1078    1.9123 O.co2     1 <0>        -0.6973
     31 O4          7.9496   -0.0820    3.7824 O.co2     1 <0>        -0.7205
     32 C20         6.4472    2.6155   -1.4622 C.2       1 <0>         0.4957
     33 O5          5.7154    2.2860   -2.3799 O.co2     1 <0>        -0.6965
     34 O6          7.4666    3.2441   -1.6909 O.co2     1 <0>        -0.7009
     35 H4         -0.9598    1.9054    0.0260 H         1 <0>         0.1238
     36 H5          1.1508    3.1682    0.0077 H         1 <0>         0.1319
     37 H6          3.3358   -0.5219   -0.0330 H         1 <0>         0.1274
     38 H7          1.2138   -1.7656   -0.0191 H         1 <0>         0.1227
     39 H8         -1.1489   -1.7256    0.5176 H         1 <0>         0.0683
     40 H9         -2.0557   -0.1941    0.5345 H         1 <0>         0.0708
     41 H10        -1.8929   -0.0704   -1.9367 H         1 <0>         0.0817
     42 H11        -0.9861   -1.6019   -1.9536 H         1 <0>         0.0745
     43 H12        -2.3774   -3.8322   -1.6109 H         1 <0>         0.1800
     44 H13        -8.7912    0.1979   -0.9515 H         1 <0>         0.4143
     45 H14        -9.0171   -1.4624   -1.0735 H         1 <0>         0.4255
     46 H15         4.8421    0.5294   -0.0416 H         1 <0>         0.3891
     47 H16         7.2537    0.4325    0.0090 H         1 <0>         0.0548
     48 H17         8.1565    1.8981    0.4621 H         1 <0>         0.0788
     49 H18         6.8522    2.0513    2.5654 H         1 <0>         0.0521
     50 H19         5.9494    0.5857    2.1123 H         1 <0>         0.0504
@<TRIPOS>BOND
     1    1    6 ar
     2    1    2 ar
     3    1   35 1
     4    2    3 ar
     5    2   36 1
     6    3    4 ar
     7    3   22 1
     8    4    5 ar
     9    4   37 1
    10    5    6 ar
    11    5   38 1
    12    6    7 1
    13    7    8 1
    14    7   39 1
    15    7   40 1
    16    8    9 1
    17    8   41 1
    18    8   42 1
    19    9   14 1
    20    9   10 2
    21   10   11 1
    22   10   43 1
    23   11   12 1
    24   11   13 1
    25   13   20 1
    26   13   14 2
    27   14   15 1
    28   15   16 2
    29   15   17 am
    30   17   18 1
    31   17   19 1
    32   19   20 2
    33   19   21 1
    34   21   44 1
    35   21   45 1
    36   22   23 2
    37   22   24 am
    38   24   25 1
    39   24   46 1
    40   25   26 1
    41   25   27 1
    42   25   32 1
    43   27   28 1
    44   27   47 1
    45   27   48 1
    46   28   29 1
    47   28   49 1
    48   28   50 1
    49   29   30 2
    50   29   31 1
    51   32   33 2
    52   32   34 1
@<TRIPOS>MOLECULE
ZINC01532629
   31    32     0     0     0
SMALL
USER_CHARGES
[5-(2,4-dioxopyrimidin-1-yl)-3-hydroxy-tetrahydrofuran-2-yl]methoxyphosphonic acid
@<TRIPOS>ATOM
      1 C1          0.4990   -3.1360   -2.8038 C.2       1 <0>        -0.3136
      2 C2          0.6254   -2.3850   -1.6889 C.2       1 <0>         0.1882
      3 N1          1.2651   -1.1772   -1.7543 N.am      1 <0>        -0.5372
      4 C3          1.7783   -0.7357   -2.9170 C.2       1 <0>         0.6694
      5 O1          2.3470    0.3385   -2.9517 O.2       1 <0>        -0.4549
      6 N2          1.6708   -1.4661   -4.0424 N.am      1 <0>        -0.6654
      7 H1          2.0579   -1.1225   -4.8980 H         1 <0>         0.4360
      8 C4          1.0432   -2.6593   -4.0208 C.2       1 <0>         0.5533
      9 O2          0.9451   -3.3207   -5.0386 O.2       1 <0>        -0.5380
     10 C5          1.3978   -0.3599   -0.5457 C.3       1 <0>         0.2896
     11 H2          1.9646   -0.9045    0.2094 H         1 <0>         0.1038
     12 C6          0.0021   -0.0041    0.0020 C.3       1 <0>        -0.1992
     13 C7         -0.0189    1.5439    0.0105 C.3       1 <0>         0.0766
     14 H3         -0.5138    1.9311   -0.8801 H         1 <0>         0.0816
     15 C8          1.4920    1.8892   -0.0020 C.3       1 <0>         0.0826
     16 H4          1.9095    1.8219    1.0026 H         1 <0>         0.0905
     17 O3          2.0620    0.8760   -0.8584 O.3       1 <0>        -0.3013
     18 C9          1.7213    3.2829   -0.5901 C.3       1 <0>         0.1442
     19 O4          3.1051    3.6232   -0.4835 O.3       1 <0>        -0.7519
     20 P1          3.7066    5.0229   -1.0041 P.3       1 <0>         2.1352
     21 O5          2.9676    6.1412   -0.3767 O.2       1 <0>        -1.1672
     22 O6         -0.6453    2.0389    1.1957 O.3       1 <0>        -0.5437
     23 H5         -0.0071   -4.0894   -2.7670 H         1 <0>         0.1666
     24 H6          0.2198   -2.7340   -0.7507 H         1 <0>         0.1738
     25 H7         -0.1216   -0.3929    1.0128 H         1 <0>         0.1011
     26 H8         -0.7760   -0.3926   -0.6550 H         1 <0>         0.0868
     27 H9          1.4257    3.2878   -1.6392 H         1 <0>         0.0430
     28 H10         1.1247    4.0115   -0.0411 H         1 <0>         0.0558
     29 H11        -1.5696    1.7718    1.2930 H         1 <0>         0.3739
     30 O7          5.2638    5.1188   -0.6068 O.3       1 <0>        -1.1807
     31 O8          3.5547    5.1102   -2.6045 O.3       1 <0>        -1.1988
@<TRIPOS>BOND
     1    1    8 1
     2    1    2 2
     3    1   23 1
     4    2    3 1
     5    2   24 1
     6    3    4 am
     7    3   10 1
     8    4    5 2
     9    4    6 am
    10    6    7 1
    11    6    8 am
    12    8    9 2
    13   10   11 1
    14   10   17 1
    15   10   12 1
    16   12   13 1
    17   12   25 1
    18   12   26 1
    19   13   14 1
    20   13   15 1
    21   13   22 1
    22   15   16 1
    23   15   17 1
    24   15   18 1
    25   18   19 1
    26   18   27 1
    27   18   28 1
    28   19   20 1
    29   20   21 2
    30   20   30 1
    31   20   31 1
    32   22   29 1
@<TRIPOS>MOLECULE
ZINC03869888
   31    32     0     0     0
SMALL
USER_CHARGES
[5-(2,4-dioxopyrimidin-1-yl)-3-hydroxy-tetrahydrofuran-2-yl]methoxyphosphonic acid
@<TRIPOS>ATOM
      1 C1         -1.3582    1.4337    4.9558 C.2       1 <0>        -0.3183
      2 C2         -1.4485    0.7385    3.8018 C.2       1 <0>         0.2058
      3 N1         -0.4526   -0.1341    3.4567 N.am      1 <0>        -0.5283
      4 C3          0.6131   -0.3096    4.2588 C.2       1 <0>         0.7022
      5 O1          1.4843   -1.0935    3.9351 O.2       1 <0>        -0.5480
      6 N2          0.7310    0.3742    5.4122 N.am      1 <0>        -0.6632
      7 H1          1.5336    0.2370    5.9927 H         1 <0>         0.4318
      8 C4         -0.2288    1.2434    5.7880 C.2       1 <0>         0.5544
      9 O2         -0.1254    1.8588    6.8338 O.2       1 <0>        -0.5319
     10 C5         -0.5507   -0.8888    2.2048 C.3       1 <0>         0.3002
     11 H2         -0.5701   -1.9582    2.4150 H         1 <0>         0.1062
     12 C6          0.6484   -0.5549    1.2964 C.3       1 <0>        -0.1838
     13 C7          0.0021   -0.0041    0.0020 C.3       1 <0>         0.0713
     14 H3          0.5191   -0.3794   -0.8811 H         1 <0>         0.0855
     15 C8         -1.4355   -0.5772    0.0866 C.3       1 <0>         0.0907
     16 H4         -1.4580   -1.6101   -0.2610 H         1 <0>         0.0994
     17 O3         -1.7423   -0.5081    1.4967 O.3       1 <0>        -0.3452
     18 C9         -2.4079    0.2856   -0.7202 C.3       1 <0>         0.1437
     19 O4         -3.6991   -0.3265   -0.7220 O.3       1 <0>        -0.7577
     20 P1         -4.9703    0.3100   -1.4777 P.3       1 <0>         2.1338
     21 O5         -4.6331    0.5426   -2.8999 O.2       1 <0>        -1.1666
     22 O6         -0.0173    1.4248    0.0099 O.3       1 <0>        -0.5383
     23 H5         -2.1370    2.1259    5.2400 H         1 <0>         0.1728
     24 H6         -2.3025    0.8708    3.1541 H         1 <0>         0.1947
     25 H7          1.2262   -1.4539    1.0816 H         1 <0>         0.1003
     26 H8          1.2791    0.2033    1.7604 H         1 <0>         0.0870
     27 H9         -2.4756    1.2755   -0.2690 H         1 <0>         0.0545
     28 H10        -2.0479    0.3773   -1.7450 H         1 <0>         0.0544
     29 H11         0.8606    1.8301    0.0037 H         1 <0>         0.3710
     30 O7         -6.2161   -0.7051   -1.3806 O.3       1 <0>        -1.1800
     31 O8         -5.3623    1.7087   -0.7835 O.3       1 <0>        -1.1986
@<TRIPOS>BOND
     1    1    8 1
     2    1    2 2
     3    1   23 1
     4    2    3 1
     5    2   24 1
     6    3    4 am
     7    3   10 1
     8    4    5 2
     9    4    6 am
    10    6    7 1
    11    6    8 am
    12    8    9 2
    13   10   11 1
    14   10   17 1
    15   10   12 1
    16   12   13 1
    17   12   25 1
    18   12   26 1
    19   13   14 1
    20   13   15 1
    21   13   22 1
    22   15   16 1
    23   15   17 1
    24   15   18 1
    25   18   19 1
    26   18   27 1
    27   18   28 1
    28   19   20 1
    29   20   21 2
    30   20   30 1
    31   20   31 1
    32   22   29 1
@<TRIPOS>MOLECULE
ZINC03869889
   31    32     0     0     0
SMALL
USER_CHARGES
[5-(2,4-dioxopyrimidin-1-yl)-3-hydroxy-tetrahydrofuran-2-yl]methoxyphosphonic acid
@<TRIPOS>ATOM
      1 C1         -0.0126    1.0758    0.0080 C.2       1 <0>        -0.3138
      2 C2          1.1421    1.7757    0.0007 C.2       1 <0>         0.1940
      3 N1          1.1054    3.1435    0.0084 N.am      1 <0>        -0.5268
      4 C3         -0.0703    3.7975    0.0232 C.2       1 <0>         0.6938
      5 O1         -0.0798    5.0133    0.0299 O.2       1 <0>        -0.5136
      6 N2         -1.2361    3.1248    0.0312 N.am      1 <0>        -0.6645
      7 H1         -2.1007    3.6269    0.0474 H         1 <0>         0.4332
      8 C4         -1.2427    1.7765    0.0175 C.2       1 <0>         0.5548
      9 O2         -2.2971    1.1671    0.0191 O.2       1 <0>        -0.5342
     10 C5          2.3581    3.9030    0.0001 C.3       1 <0>         0.2970
     11 H2          3.2104    3.2267    0.0657 H         1 <0>         0.1221
     12 C6          2.4535    4.7690   -1.2813 C.3       1 <0>        -0.1926
     13 C7          3.4153    5.8923   -0.8070 C.3       1 <0>         0.0802
     14 H3          3.2370    6.8172   -1.3556 H         1 <0>         0.0854
     15 C8          3.0266    6.0509    0.6786 C.3       1 <0>         0.0957
     16 H4          2.3438    6.8925    0.7957 H         1 <0>         0.1008
     17 O3          2.3803    4.8401    1.0885 O.3       1 <0>        -0.3414
     18 C9          4.2823    6.2804    1.5221 C.3       1 <0>         0.1345
     19 O4          3.9062    6.5322    2.8775 O.3       1 <0>        -0.7568
     20 P1          4.9764    6.8174    4.0459 P.3       1 <0>         2.1373
     21 O5          5.8464    7.9483    3.6528 O.2       1 <0>        -1.1681
     22 O6          4.7783    5.4825   -0.9351 O.3       1 <0>        -0.5400
     23 H5          0.0021   -0.0041    0.0020 H         1 <0>         0.1698
     24 H6          2.0900    1.2584   -0.0108 H         1 <0>         0.1800
     25 H7          2.8866    4.2034   -2.1063 H         1 <0>         0.0904
     26 H8          1.4796    5.1751   -1.5544 H         1 <0>         0.1012
     27 H9          4.9155    5.3942    1.4794 H         1 <0>         0.0462
     28 H10         4.8305    7.1378    1.1318 H         1 <0>         0.0482
     29 H11         5.0706    5.3691   -1.8499 H         1 <0>         0.3717
     30 O7          4.1995    7.1858    5.4071 O.3       1 <0>        -1.1824
     31 O8          5.8772    5.5038    4.2809 O.3       1 <0>        -1.2020
@<TRIPOS>BOND
     1    1    8 1
     2    1    2 2
     3    1   23 1
     4    2    3 1
     5    2   24 1
     6    3    4 am
     7    3   10 1
     8    4    5 2
     9    4    6 am
    10    6    7 1
    11    6    8 am
    12    8    9 2
    13   10   11 1
    14   10   17 1
    15   10   12 1
    16   12   13 1
    17   12   25 1
    18   12   26 1
    19   13   14 1
    20   13   15 1
    21   13   22 1
    22   15   16 1
    23   15   17 1
    24   15   18 1
    25   18   19 1
    26   18   27 1
    27   18   28 1
    28   19   20 1
    29   20   21 2
    30   20   30 1
    31   20   31 1
    32   22   29 1
@<TRIPOS>MOLECULE
ZINC03869890
   31    32     0     0     0
SMALL
USER_CHARGES
[5-(2,4-dioxopyrimidin-1-yl)-3-hydroxy-tetrahydrofuran-2-yl]methoxyphosphonic acid
@<TRIPOS>ATOM
      1 C1          0.7214    3.7567    5.2415 C.2       1 <0>        -0.3145
      2 C2          0.6873    2.6602    4.4544 C.2       1 <0>         0.1910
      3 N1          0.7665    2.7988    3.0954 N.am      1 <0>        -0.5347
      4 C3          0.8831    4.0171    2.5365 C.2       1 <0>         0.6885
      5 O1          0.9566    4.1171    1.3270 O.2       1 <0>        -0.5042
      6 N2          0.9143    5.1271    3.2971 N.am      1 <0>        -0.6637
      7 H1          0.9937    6.0252    2.8645 H         1 <0>         0.4345
      8 C4          0.8389    5.0330    4.6401 C.2       1 <0>         0.5544
      9 O2          0.8713    6.0365    5.3293 O.2       1 <0>        -0.5351
     10 C5          0.7301    1.6091    2.2413 C.3       1 <0>         0.2904
     11 H2          0.7376    0.7107    2.8584 H         1 <0>         0.1285
     12 C6         -0.5397    1.6310    1.3634 C.3       1 <0>        -0.1919
     13 C7         -0.0127    1.0858    0.0080 C.3       1 <0>         0.0799
     14 H3          0.0021   -0.0041    0.0020 H         1 <0>         0.0839
     15 C8          1.4249    1.6639   -0.0026 C.3       1 <0>         0.0904
     16 H4          1.4153    2.6954   -0.3548 H         1 <0>         0.1032
     17 O3          1.8626    1.6057    1.3643 O.3       1 <0>        -0.3339
     18 C9          2.3342    0.8097   -0.8883 C.3       1 <0>         0.1368
     19 O4          3.6223    1.4217   -0.9789 O.3       1 <0>        -0.7517
     20 P1          4.8336    0.7932   -1.8332 P.3       1 <0>         2.1345
     21 O5          4.3921    0.5759   -3.2290 O.2       1 <0>        -1.1663
     22 O6         -0.7800    1.5933   -1.0855 O.3       1 <0>        -0.5391
     23 H5          0.6601    3.6614    6.3155 H         1 <0>         0.1678
     24 H6          0.5984    1.6783    4.8953 H         1 <0>         0.1775
     25 H7         -0.9170    2.6476    1.2523 H         1 <0>         0.0959
     26 H8         -1.3065    0.9741    1.7740 H         1 <0>         0.0908
     27 H9          2.4343   -0.1850   -0.4538 H         1 <0>         0.0388
     28 H10         1.8994    0.7289   -1.8845 H         1 <0>         0.0562
     29 H11        -1.7016    1.3006   -1.0887 H         1 <0>         0.3732
     30 O7          6.0841    1.8072   -1.8176 O.3       1 <0>        -1.1801
     31 O8          5.2747   -0.6129   -1.1848 O.3       1 <0>        -1.2010
@<TRIPOS>BOND
     1    1    8 1
     2    1    2 2
     3    1   23 1
     4    2    3 1
     5    2   24 1
     6    3    4 am
     7    3   10 1
     8    4    5 2
     9    4    6 am
    10    6    7 1
    11    6    8 am
    12    8    9 2
    13   10   11 1
    14   10   17 1
    15   10   12 1
    16   12   13 1
    17   12   25 1
    18   12   26 1
    19   13   14 1
    20   13   15 1
    21   13   22 1
    22   15   16 1
    23   15   17 1
    24   15   18 1
    25   18   19 1
    26   18   27 1
    27   18   28 1
    28   19   20 1
    29   20   21 2
    30   20   30 1
    31   20   31 1
    32   22   29 1
@<TRIPOS>MOLECULE
ZINC00008107
   32    34     0     0     0
SMALL
USER_CHARGES
2-amino-6-methyl-5-(4-pyridylsulfanyl)-3H-quinazolin-4-one
@<TRIPOS>ATOM
      1 C1         -3.9760    2.8330   -2.4513 C.3       1 <0>        -0.1255
      2 C2         -4.4879    2.2881   -1.1427 C.ar      1 <0>        -0.0613
      3 C3         -5.4573    1.2984   -1.1421 C.ar      1 <0>        -0.0725
      4 C4         -5.9469    0.7861    0.0401 C.ar      1 <0>        -0.0945
      5 C5         -5.4604    1.2621    1.2594 C.ar      1 <0>         0.1975
      6 C6         -4.4672    2.2683    1.2647 C.ar      1 <0>        -0.1851
      7 C7         -3.9810    2.7777    0.0524 C.ar      1 <0>        -0.0775
      8 S1         -2.7437    4.0322    0.0468 S.3       1 <0>         0.0554
      9 C8         -1.2272    3.1352    0.0292 C.ar      1 <0>        -0.0446
     10 C9         -1.2209    1.7400    0.0173 C.ar      1 <0>        -0.1858
     11 C10        -0.0126    1.0758    0.0080 C.ar      1 <0>         0.1182
     12 N1          1.1265    1.7429    0.0007 N.ar      1 <0>        -0.4943
     13 C11         1.1625    3.0625    0.0070 C.ar      1 <0>         0.1181
     14 C12        -0.0015    3.8015    0.0211 C.ar      1 <0>        -0.1583
     15 C13        -3.9746    2.7489    2.5583 C.2       1 <0>         0.5562
     16 O1         -3.1198    3.6135    2.6261 O.2       1 <0>        -0.4734
     17 N2         -4.5035    2.1971    3.6748 N.am      1 <0>        -0.6703
     18 H1         -4.1904    2.5015    4.5744 H         1 <0>         0.4211
     19 C14        -5.4606    1.2287    3.5834 C.2       1 <0>         0.6412
     20 N3         -5.9177    0.7819    2.4406 N.2       1 <0>        -0.5889
     21 N4         -5.9672    0.6981    4.7430 N.pl3     1 <0>        -0.8240
     22 H2         -3.1213    2.2425   -2.7812 H         1 <0>         0.0759
     23 H3         -4.7656    2.7796   -3.2008 H         1 <0>         0.0754
     24 H4         -3.6710    3.8709   -2.3182 H         1 <0>         0.0838
     25 H5         -5.8379    0.9257   -2.0817 H         1 <0>         0.1414
     26 H6         -6.7053    0.0174    0.0235 H         1 <0>         0.1448
     27 H7         -2.1492    1.1881    0.0192 H         1 <0>         0.1280
     28 H8          0.0021   -0.0041    0.0020 H         1 <0>         0.1555
     29 H9          2.1160    3.5698    0.0006 H         1 <0>         0.1610
     30 H10         0.0352    4.8809    0.0255 H         1 <0>         0.1395
     31 H11        -6.6481    0.0084    4.7038 H         1 <0>         0.4290
     32 H12        -5.6444    1.0128    5.6019 H         1 <0>         0.4138
@<TRIPOS>BOND
     1    1    2 1
     2    1   22 1
     3    1   23 1
     4    1   24 1
     5    2    7 ar
     6    2    3 ar
     7    3    4 ar
     8    3   25 1
     9    4    5 ar
    10    4   26 1
    11    5   20 1
    12    5    6 ar
    13    6    7 ar
    14    6   15 1
    15    7    8 1
    16    8    9 1
    17    9   14 ar
    18    9   10 ar
    19   10   11 ar
    20   10   27 1
    21   11   12 ar
    22   11   28 1
    23   12   13 ar
    24   13   14 ar
    25   13   29 1
    26   14   30 1
    27   15   16 2
    28   15   17 am
    29   17   18 1
    30   17   19 1
    31   19   20 2
    32   19   21 1
    33   21   31 1
    34   21   32 1
@<TRIPOS>MOLECULE
ZINC01529898
   31    32     0     0     0
SMALL
USER_CHARGES
[5-(5-fluoro-2,4-dioxo-pyrimidin-1-yl)-3-hydroxy-tetrahydrofuran-2-yl]methoxyphosphonic acid
@<TRIPOS>ATOM
      1 C1          1.7875    2.3961    1.0364 C.2       1 <0>         0.1719
      2 C2          3.0477    2.8817    1.0262 C.2       1 <0>        -0.0939
      3 C3          3.8979    2.5693   -0.0641 C.2       1 <0>         0.5472
      4 O1          5.0384    2.9951   -0.0957 O.2       1 <0>        -0.5055
      5 N1          3.4324    1.7960   -1.0658 N.am      1 <0>        -0.6521
      6 H1          4.0250    1.5745   -1.8402 H         1 <0>         0.4420
      7 C4          2.1737    1.3209   -1.0281 C.2       1 <0>         0.7013
      8 O2          1.7701    0.6207   -1.9366 O.2       1 <0>        -0.5319
      9 N2          1.3539    1.6135   -0.0022 N.am      1 <0>        -0.5173
     10 C5         -0.0127    1.0858    0.0080 C.3       1 <0>         0.3007
     11 H2          0.0021   -0.0041    0.0020 H         1 <0>         0.1134
     12 C6         -0.8044    1.6196   -1.2064 C.3       1 <0>        -0.1862
     13 C7         -2.2297    1.8468   -0.6549 C.3       1 <0>         0.0765
     14 H3         -2.5068    2.8980   -0.7342 H         1 <0>         0.0851
     15 C8         -2.1306    1.4234    0.8274 C.3       1 <0>         0.0900
     16 H4         -2.4425    0.3859    0.9474 H         1 <0>         0.0981
     17 O3         -0.7310    1.5725    1.1626 O.3       1 <0>        -0.3457
     18 C9         -2.9878    2.3407    1.7018 C.3       1 <0>         0.1386
     19 O4         -2.9753    1.8632    3.0486 O.3       1 <0>        -0.7522
     20 P1         -3.7742    2.5883    4.2435 P.3       1 <0>         2.1304
     21 O5         -3.3688    4.0098    4.3167 O.2       1 <0>        -1.1631
     22 O6         -3.1716    1.0257   -1.3483 O.3       1 <0>        -0.5480
     23 F1          3.4918    3.6550    2.0411 F         1 <0>        -0.1014
     24 H5          1.1247    2.6235    1.8582 H         1 <0>         0.2054
     25 H6         -0.3768    2.5585   -1.5583 H         1 <0>         0.0850
     26 H7         -0.8182    0.8810   -2.0079 H         1 <0>         0.1046
     27 H8         -2.5843    3.3528    1.6714 H         1 <0>         0.0459
     28 H9         -4.0117    2.3464    1.3278 H         1 <0>         0.0601
     29 H10        -3.2299    1.2085   -2.2961 H         1 <0>         0.3772
     30 O7         -5.3572    2.4955    3.9646 O.3       1 <0>        -1.1991
     31 O8         -3.4314    1.8600    5.6378 O.3       1 <0>        -1.1771
@<TRIPOS>BOND
     1    1    9 1
     2    1    2 2
     3    1   24 1
     4    2    3 1
     5    2   23 1
     6    3    4 2
     7    3    5 am
     8    5    6 1
     9    5    7 am
    10    7    8 2
    11    7    9 am
    12    9   10 1
    13   10   11 1
    14   10   17 1
    15   10   12 1
    16   12   13 1
    17   12   25 1
    18   12   26 1
    19   13   14 1
    20   13   15 1
    21   13   22 1
    22   15   16 1
    23   15   17 1
    24   15   18 1
    25   18   19 1
    26   18   27 1
    27   18   28 1
    28   19   20 1
    29   20   21 2
    30   20   30 1
    31   20   31 1
    32   22   29 1
@<TRIPOS>MOLECULE
ZINC02043126
   31    32     0     0     0
SMALL
USER_CHARGES
[5-(5-fluoro-2,4-dioxo-pyrimidin-1-yl)-3-hydroxy-tetrahydrofuran-2-yl]methoxyphosphonic acid
@<TRIPOS>ATOM
      1 C1          1.1540    2.0551    0.0021 C.2       1 <0>         0.1669
      2 C2          2.3356    1.4011   -0.0128 C.2       1 <0>        -0.0889
      3 C3          2.3387   -0.0163   -0.0209 C.2       1 <0>         0.5490
      4 O1          3.3915   -0.6284   -0.0343 O.2       1 <0>        -0.5052
      5 N1          1.1654   -0.6806   -0.0132 N.am      1 <0>        -0.6524
      6 H1          1.1596   -1.6806   -0.0188 H         1 <0>         0.4422
      7 C4          0.0021   -0.0041    0.0020 C.2       1 <0>         0.7022
      8 O2         -1.0478   -0.6176    0.0088 O.2       1 <0>        -0.5316
      9 N2         -0.0162    1.3412    0.0094 N.am      1 <0>        -0.5193
     10 C5         -1.2985    2.0495    0.0193 C.3       1 <0>         0.2858
     11 H2         -2.1158    1.3360   -0.0859 H         1 <0>         0.1449
     12 C6         -1.4539    2.8329    1.3406 C.3       1 <0>        -0.1959
     13 C7         -2.1219    4.1518    0.8651 C.3       1 <0>         0.0778
     14 H3         -3.2023    4.0359    0.7785 H         1 <0>         0.0915
     15 C8         -1.4658    4.3285   -0.5274 C.3       1 <0>         0.0803
     16 H4         -0.4849    4.7932   -0.4272 H         1 <0>         0.0912
     17 O3         -1.3380    2.9980   -1.0534 O.3       1 <0>        -0.3356
     18 C9         -2.3629    5.1740   -1.4337 C.3       1 <0>         0.1361
     19 O4         -1.6912    5.4233   -2.6701 O.3       1 <0>        -0.7526
     20 P1         -2.3431    6.2843   -3.8641 P.3       1 <0>         2.1315
     21 O5         -3.6562    5.7071   -4.2286 O.2       1 <0>        -1.1640
     22 O6         -1.7908    5.2384    1.7321 O.3       1 <0>        -0.5404
     23 F1          3.4987    2.0885   -0.0203 F         1 <0>        -0.1036
     24 H5          1.1312    3.1349    0.0078 H         1 <0>         0.1891
     25 H6         -2.1021    2.2980    2.0347 H         1 <0>         0.1008
     26 H7         -0.4812    3.0310    1.7908 H         1 <0>         0.0950
     27 H8         -3.2923    4.6383   -1.6267 H         1 <0>         0.0451
     28 H9         -2.5849    6.1217   -0.9432 H         1 <0>         0.0593
     29 H10        -2.0896    5.1191    2.6440 H         1 <0>         0.3780
     30 O7         -2.5418    7.8072   -3.3810 O.3       1 <0>        -1.1992
     31 O8         -1.3679    6.2505   -5.1447 O.3       1 <0>        -1.1780
@<TRIPOS>BOND
     1    1    9 1
     2    1    2 2
     3    1   24 1
     4    2    3 1
     5    2   23 1
     6    3    4 2
     7    3    5 am
     8    5    6 1
     9    5    7 am
    10    7    8 2
    11    7    9 am
    12    9   10 1
    13   10   11 1
    14   10   17 1
    15   10   12 1
    16   12   13 1
    17   12   25 1
    18   12   26 1
    19   13   14 1
    20   13   15 1
    21   13   22 1
    22   15   16 1
    23   15   17 1
    24   15   18 1
    25   18   19 1
    26   18   27 1
    27   18   28 1
    28   19   20 1
    29   20   21 2
    30   20   30 1
    31   20   31 1
    32   22   29 1
@<TRIPOS>MOLECULE
ZINC03871118
   31    32     0     0     0
SMALL
USER_CHARGES
[5-(5-fluoro-2,4-dioxo-pyrimidin-1-yl)-3-hydroxy-tetrahydrofuran-2-yl]methoxyphosphonic acid
@<TRIPOS>ATOM
      1 C1         -2.6105    1.3245    7.6159 C.2       1 <0>         0.1640
      2 C2         -2.1991    0.5392    8.6349 C.2       1 <0>        -0.0953
      3 C3         -1.1337   -0.3700    8.4174 C.2       1 <0>         0.5470
      4 O1         -0.7417   -1.0850    9.3221 O.2       1 <0>        -0.5143
      5 N1         -0.5579   -0.4359    7.2000 N.am      1 <0>        -0.6544
      6 H1          0.1943   -1.0749    7.0391 H         1 <0>         0.4446
      7 C4         -0.9909    0.3545    6.2004 C.2       1 <0>         0.6678
      8 O2         -0.4617    0.2831    5.1080 O.2       1 <0>        -0.4406
      9 N2         -2.0011    1.2222    6.3922 N.am      1 <0>        -0.5215
     10 C5         -2.4500    2.0698    5.2848 C.3       1 <0>         0.2879
     11 H2         -2.3524    3.1229    5.5483 H         1 <0>         0.1059
     12 C6         -3.9134    1.7413    4.9151 C.3       1 <0>        -0.1991
     13 C7         -3.9501    1.8714    3.3760 C.3       1 <0>         0.0802
     14 H3         -4.6485    2.6523    3.0752 H         1 <0>         0.0806
     15 C8         -2.5045    2.2631    2.9978 C.3       1 <0>         0.0742
     16 H4         -2.4137    3.3457    2.9093 H         1 <0>         0.0918
     17 O3         -1.6931    1.7782    4.0898 O.3       1 <0>        -0.2982
     18 C9         -2.0945    1.5864    1.6883 C.3       1 <0>         0.1509
     19 O4         -0.7716    1.9950    1.3348 O.3       1 <0>        -0.7560
     20 P1         -0.0180    1.4758    0.0102 P.3       1 <0>         2.1381
     21 O5          0.0021   -0.0041    0.0020 O.2       1 <0>        -1.1654
     22 O6         -4.3039    0.6235    2.7763 O.3       1 <0>        -0.5354
     23 F1         -2.7915    0.6229    9.8462 F         1 <0>        -0.1097
     24 H5         -3.4178    2.0265    7.7633 H         1 <0>         0.1853
     25 H6         -4.1652    0.7251    5.2186 H         1 <0>         0.0931
     26 H7         -4.5939    2.4565    5.3773 H         1 <0>         0.0929
     27 H8         -2.7873    1.8749    0.8978 H         1 <0>         0.0491
     28 H9         -2.1187    0.5041    1.8155 H         1 <0>         0.0535
     29 H10        -5.2021    0.3294    2.9808 H         1 <0>         0.3691
     30 O7          1.4924    2.0330   -0.0013 O.3       1 <0>        -1.1822
     31 O8         -0.7967    2.0091   -1.2942 O.3       1 <0>        -1.2041
@<TRIPOS>BOND
     1    1    9 1
     2    1    2 2
     3    1   24 1
     4    2    3 1
     5    2   23 1
     6    3    4 2
     7    3    5 am
     8    5    6 1
     9    5    7 am
    10    7    8 2
    11    7    9 am
    12    9   10 1
    13   10   11 1
    14   10   17 1
    15   10   12 1
    16   12   13 1
    17   12   25 1
    18   12   26 1
    19   13   14 1
    20   13   15 1
    21   13   22 1
    22   15   16 1
    23   15   17 1
    24   15   18 1
    25   18   19 1
    26   18   27 1
    27   18   28 1
    28   19   20 1
    29   20   21 2
    30   20   30 1
    31   20   31 1
    32   22   29 1
@<TRIPOS>MOLECULE
ZINC03871119
   31    32     0     0     0
SMALL
USER_CHARGES
[5-(5-fluoro-2,4-dioxo-pyrimidin-1-yl)-3-hydroxy-tetrahydrofuran-2-yl]methoxyphosphonic acid
@<TRIPOS>ATOM
      1 C1          3.4173    4.2862   -1.8730 C.2       1 <0>         0.1564
      2 C2          4.5996    4.8796   -2.1459 C.2       1 <0>        -0.0873
      3 C3          5.4703    4.2794   -3.0896 C.2       1 <0>         0.5474
      4 O1          6.5397    4.7980   -3.3558 O.2       1 <0>        -0.5056
      5 N1          5.1037    3.1293   -3.6903 N.am      1 <0>        -0.6531
      6 H1          5.7129    2.6998   -4.3569 H         1 <0>         0.4405
      7 C4          3.9216    2.5567   -3.3968 C.2       1 <0>         0.7001
      8 O2          3.6050    1.5197   -3.9473 O.2       1 <0>        -0.5377
      9 N2          3.0853    3.1148   -2.5028 N.am      1 <0>        -0.5293
     10 C5          1.8052    2.4679   -2.2042 C.3       1 <0>         0.2913
     11 H2          1.3291    2.1397   -3.1282 H         1 <0>         0.1387
     12 C6          2.0328    1.2602   -1.2744 C.3       1 <0>        -0.1843
     13 C7          1.2591    1.6240    0.0162 C.3       1 <0>         0.0770
     14 H3          1.8259    1.3393    0.9027 H         1 <0>         0.0857
     15 C8          1.1452    3.1656   -0.0961 C.3       1 <0>         0.0677
     16 H4          2.0653    3.6440    0.2397 H         1 <0>         0.0922
     17 O3          0.9440    3.3856   -1.5097 O.3       1 <0>        -0.3222
     18 C9         -0.0533    3.6772    0.7057 C.3       1 <0>         0.1444
     19 O4         -0.0678    5.1059    0.6815 O.3       1 <0>        -0.7584
     20 P1         -1.1937    5.9841    1.4252 P.3       1 <0>         2.1329
     21 O5         -2.5346    5.5600    0.9640 O.2       1 <0>        -1.1635
     22 O6         -0.0342    1.0163    0.0239 O.3       1 <0>        -0.5355
     23 F1          4.9454    6.0319   -1.5312 F         1 <0>        -0.0994
     24 H5          2.7389    4.7303   -1.1596 H         1 <0>         0.2027
     25 H6          3.0947    1.1378   -1.0610 H         1 <0>         0.0881
     26 H7          1.6254    0.3531   -1.7206 H         1 <0>         0.1036
     27 H8         -0.9746    3.2969    0.2645 H         1 <0>         0.0589
     28 H9          0.0253    3.3320    1.7366 H         1 <0>         0.0544
     29 H10        -0.0145    0.0498    0.0476 H         1 <0>         0.3732
     30 O7         -1.0798    5.7664    3.0164 O.3       1 <0>        -1.2007
     31 O8         -0.9749    7.5412    1.0795 O.3       1 <0>        -1.1781
@<TRIPOS>BOND
     1    1    9 1
     2    1    2 2
     3    1   24 1
     4    2    3 1
     5    2   23 1
     6    3    4 2
     7    3    5 am
     8    5    6 1
     9    5    7 am
    10    7    8 2
    11    7    9 am
    12    9   10 1
    13   10   11 1
    14   10   17 1
    15   10   12 1
    16   12   13 1
    17   12   25 1
    18   12   26 1
    19   13   14 1
    20   13   15 1
    21   13   22 1
    22   15   16 1
    23   15   17 1
    24   15   18 1
    25   18   19 1
    26   18   27 1
    27   18   28 1
    28   19   20 1
    29   20   21 2
    30   20   30 1
    31   20   31 1
    32   22   29 1
@<TRIPOS>MOLECULE
ZINC01529323
   53    55     0     0     0
SMALL
USER_CHARGES

@<TRIPOS>ATOM
      1 C1         -0.0178    1.4608    0.0101 C.3       1 <0>         0.0943
      2 N1          0.0021   -0.0041    0.0020 N.pl3     1 <0>        -0.6229
      3 C2          0.0241   -0.7433    1.2666 C.3       1 <0>         0.1846
      4 C3         -1.3889   -1.0161    1.7137 C.ar      1 <0>         0.0299
      5 C4         -1.9892   -2.2351    1.3999 C.ar      1 <0>         0.1556
      6 N2         -3.2219   -2.4965    1.7797 N.ar      1 <0>        -0.4373
      7 C5         -3.9051   -1.5830    2.4739 C.ar      1 <0>         0.3718
      8 C6         -3.2902   -0.3458    2.7901 C.ar      1 <0>        -0.0918
      9 N3         -2.0425   -0.1038    2.4012 N.ar      1 <0>        -0.3728
     10 C7         -4.0706    0.6301    3.5527 C.ar      1 <0>         0.5432
     11 N4         -5.3055    0.2953    3.9004 N.ar      1 <0>        -0.6300
     12 C8         -5.8196   -0.8850    3.5693 C.ar      1 <0>         0.6362
     13 N5         -5.1609   -1.7987    2.8845 N.ar      1 <0>        -0.5990
     14 N6         -7.1130   -1.1692    3.9639 N.pl3     1 <0>        -0.8099
     15 N7         -3.5402    1.8539    3.8976 N.pl3     1 <0>        -0.7943
     16 C9          0.0000   -0.6928   -1.2059 C.ar      1 <0>         0.2179
     17 C10         0.0132   -2.0849   -1.2118 C.ar      1 <0>        -0.2113
     18 C11         0.0112   -2.7693   -2.4056 C.ar      1 <0>        -0.0159
     19 C12        -0.0041   -2.0653   -3.6133 C.ar      1 <0>        -0.1590
     20 C13        -0.0173   -0.6674   -3.6040 C.ar      1 <0>        -0.0366
     21 C14        -0.0210    0.0112   -2.4068 C.ar      1 <0>        -0.1985
     22 C15        -0.0058   -2.7960   -4.8948 C.2       1 <0>         0.5556
     23 O1          0.0061   -4.0119   -4.9015 O.2       1 <0>        -0.5600
     24 N8         -0.0205   -2.1158   -6.0583 N.am      1 <0>        -0.6793
     25 C16        -0.0222   -2.8414   -7.3310 C.3       1 <0>         0.0733
     26 H1         -0.6020   -3.7584   -7.2256 H         1 <0>         0.0773
     27 C17        -0.6480   -1.9644   -8.4172 C.3       1 <0>        -0.0801
     28 C18        -2.1222   -1.7198   -8.0888 C.3       1 <0>        -0.1777
     29 C19        -2.7386   -0.8559   -9.1588 C.2       1 <0>         0.4909
     30 O2         -2.0616   -0.4715  -10.0971 O.co2     1 <0>        -0.6975
     31 O3         -3.9143   -0.5414   -9.0862 O.co2     1 <0>        -0.7207
     32 C20         1.3940   -3.1839   -7.7158 C.2       1 <0>         0.4958
     33 O4          2.3190   -2.8526   -6.9939 O.co2     1 <0>        -0.6970
     34 O5          1.6147   -3.7923   -8.7491 O.co2     1 <0>        -0.7014
     35 H2          1.0048    1.8381    0.0023 H         1 <0>         0.0502
     36 H3         -0.5450    1.8219   -0.8730 H         1 <0>         0.0690
     37 H4         -0.5280    1.8123    0.9069 H         1 <0>         0.0657
     38 H5          0.5496   -1.6879    1.1262 H         1 <0>         0.1015
     39 H6          0.5371   -0.1514    2.0246 H         1 <0>         0.0948
     40 H7         -1.4361   -2.9733    0.8382 H         1 <0>         0.1815
     41 H8         -7.6209   -0.5150    4.4689 H         1 <0>         0.4148
     42 H9         -7.5132   -2.0229    3.7358 H         1 <0>         0.4190
     43 H10        -2.6346    2.0814    3.6347 H         1 <0>         0.4250
     44 H11        -4.0722    2.4880    4.4032 H         1 <0>         0.4139
     45 H12         0.0253   -2.6282   -0.2785 H         1 <0>         0.1208
     46 H13         0.0217   -3.8493   -2.4096 H         1 <0>         0.1351
     47 H14        -0.0287   -0.1208   -4.5353 H         1 <0>         0.1282
     48 H15        -0.0359    1.0910   -2.3989 H         1 <0>         0.1244
     49 H16        -0.0300   -1.1459   -6.0530 H         1 <0>         0.3877
     50 H17        -0.1225   -1.0104   -8.4615 H         1 <0>         0.0543
     51 H18        -0.5691   -2.4677   -9.3808 H         1 <0>         0.0783
     52 H19        -2.6477   -2.6737   -8.0445 H         1 <0>         0.0522
     53 H20        -2.2011   -1.2164   -7.1252 H         1 <0>         0.0501
@<TRIPOS>BOND
     1    1    2 1
     2    1   35 1
     3    1   36 1
     4    1   37 1
     5    2    3 1
     6    2   16 1
     7    3    4 1
     8    3   38 1
     9    3   39 1
    10    4    9 ar
    11    4    5 ar
    12    5    6 ar
    13    5   40 1
    14    6    7 ar
    15    7   13 ar
    16    7    8 ar
    17    8    9 ar
    18    8   10 ar
    19   10   11 ar
    20   10   15 1
    21   11   12 ar
    22   12   13 ar
    23   12   14 1
    24   14   41 1
    25   14   42 1
    26   15   43 1
    27   15   44 1
    28   16   21 ar
    29   16   17 ar
    30   17   18 ar
    31   17   45 1
    32   18   19 ar
    33   18   46 1
    34   19   20 ar
    35   19   22 1
    36   20   21 ar
    37   20   47 1
    38   21   48 1
    39   22   23 2
    40   22   24 am
    41   24   25 1
    42   24   49 1
    43   25   26 1
    44   25   27 1
    45   25   32 1
    46   27   28 1
    47   27   50 1
    48   27   51 1
    49   28   29 1
    50   28   52 1
    51   28   53 1
    52   29   30 2
    53   29   31 1
    54   32   33 2
    55   32   34 1
@<TRIPOS>MOLECULE
ZINC06920406
   53    55     0     0     0
SMALL
USER_CHARGES

@<TRIPOS>ATOM
      1 C1         -0.0178    1.4608    0.0101 C.3       1 <0>         0.0941
      2 N1          0.0021   -0.0041    0.0020 N.pl3     1 <0>        -0.6227
      3 C2          0.0241   -0.7433    1.2666 C.3       1 <0>         0.1846
      4 C3         -1.3889   -1.0161    1.7137 C.ar      1 <0>         0.0297
      5 C4         -1.9892   -2.2351    1.3999 C.ar      1 <0>         0.1557
      6 N2         -3.2219   -2.4965    1.7797 N.ar      1 <0>        -0.4368
      7 C5         -3.9051   -1.5830    2.4739 C.ar      1 <0>         0.3719
      8 C6         -3.2902   -0.3458    2.7901 C.ar      1 <0>        -0.0918
      9 N3         -2.0425   -0.1038    2.4012 N.ar      1 <0>        -0.3728
     10 C7         -4.0706    0.6301    3.5527 C.ar      1 <0>         0.5431
     11 N4         -5.3055    0.2953    3.9004 N.ar      1 <0>        -0.6300
     12 C8         -5.8196   -0.8850    3.5693 C.ar      1 <0>         0.6360
     13 N5         -5.1609   -1.7987    2.8845 N.ar      1 <0>        -0.5986
     14 N6         -7.1130   -1.1692    3.9639 N.pl3     1 <0>        -0.8100
     15 N7         -3.5402    1.8539    3.8976 N.pl3     1 <0>        -0.7944
     16 C9          0.0000   -0.6928   -1.2059 C.ar      1 <0>         0.2189
     17 C10         0.0132   -2.0849   -1.2118 C.ar      1 <0>        -0.2116
     18 C11         0.0112   -2.7693   -2.4056 C.ar      1 <0>        -0.0155
     19 C12        -0.0041   -2.0653   -3.6133 C.ar      1 <0>        -0.1616
     20 C13        -0.0173   -0.6674   -3.6040 C.ar      1 <0>        -0.0356
     21 C14        -0.0210    0.0112   -2.4068 C.ar      1 <0>        -0.1983
     22 C15        -0.0058   -2.7960   -4.8948 C.2       1 <0>         0.5487
     23 O1          0.0061   -4.0119   -4.9015 O.2       1 <0>        -0.5585
     24 N8         -0.0205   -2.1158   -6.0583 N.am      1 <0>        -0.6789
     25 C16        -0.0222   -2.8414   -7.3310 C.3       1 <0>         0.0745
     26 H1          0.5768   -3.7469   -7.2338 H         1 <0>         0.0773
     27 C17         0.5711   -1.9524   -8.4257 C.3       1 <0>        -0.0822
     28 C18         2.0446   -1.6789   -8.1177 C.3       1 <0>        -0.1766
     29 C19         2.6291   -0.8032   -9.1959 C.2       1 <0>         0.4909
     30 O2          1.9317   -0.4323  -10.1247 O.co2     1 <0>        -0.6980
     31 O3          3.7993   -0.4657   -9.1396 O.co2     1 <0>        -0.7201
     32 C20        -1.4367   -3.2117   -7.6962 C.2       1 <0>         0.4981
     33 O4         -2.3634   -2.5041   -7.3399 O.co2     1 <0>        -0.6991
     34 O5         -1.6542   -4.2188   -8.3480 O.co2     1 <0>        -0.7022
     35 H2          1.0048    1.8381    0.0023 H         1 <0>         0.0507
     36 H3         -0.5450    1.8219   -0.8730 H         1 <0>         0.0690
     37 H4         -0.5280    1.8123    0.9069 H         1 <0>         0.0658
     38 H5          0.5496   -1.6879    1.1262 H         1 <0>         0.1014
     39 H6          0.5371   -0.1514    2.0246 H         1 <0>         0.0950
     40 H7         -1.4361   -2.9733    0.8382 H         1 <0>         0.1814
     41 H8         -7.6209   -0.5150    4.4689 H         1 <0>         0.4147
     42 H9         -7.5132   -2.0229    3.7358 H         1 <0>         0.4190
     43 H10        -2.6346    2.0814    3.6347 H         1 <0>         0.4250
     44 H11        -4.0722    2.4880    4.4032 H         1 <0>         0.4139
     45 H12         0.0253   -2.6282   -0.2785 H         1 <0>         0.1211
     46 H13         0.0217   -3.8493   -2.4096 H         1 <0>         0.1354
     47 H14        -0.0287   -0.1208   -4.5353 H         1 <0>         0.1292
     48 H15        -0.0359    1.0910   -2.3989 H         1 <0>         0.1249
     49 H16        -0.0300   -1.1459   -6.0530 H         1 <0>         0.3899
     50 H17         0.4888   -2.4573   -9.3882 H         1 <0>         0.0717
     51 H18         0.0264   -1.0090   -8.4626 H         1 <0>         0.0594
     52 H19         2.1270   -1.1740   -7.1552 H         1 <0>         0.0514
     53 H20         2.5893   -2.6223   -8.0808 H         1 <0>         0.0527
@<TRIPOS>BOND
     1    1    2 1
     2    1   35 1
     3    1   36 1
     4    1   37 1
     5    2    3 1
     6    2   16 1
     7    3    4 1
     8    3   38 1
     9    3   39 1
    10    4    9 ar
    11    4    5 ar
    12    5    6 ar
    13    5   40 1
    14    6    7 ar
    15    7   13 ar
    16    7    8 ar
    17    8    9 ar
    18    8   10 ar
    19   10   11 ar
    20   10   15 1
    21   11   12 ar
    22   12   13 ar
    23   12   14 1
    24   14   41 1
    25   14   42 1
    26   15   43 1
    27   15   44 1
    28   16   21 ar
    29   16   17 ar
    30   17   18 ar
    31   17   45 1
    32   18   19 ar
    33   18   46 1
    34   19   20 ar
    35   19   22 1
    36   20   21 ar
    37   20   47 1
    38   21   48 1
    39   22   23 2
    40   22   24 am
    41   24   25 1
    42   24   49 1
    43   25   26 1
    44   25   27 1
    45   25   32 1
    46   27   28 1
    47   27   50 1
    48   27   51 1
    49   28   29 1
    50   28   52 1
    51   28   53 1
    52   29   30 2
    53   29   31 1
    54   32   33 2
    55   32   34 1
@<TRIPOS>MOLECULE
ZINC03831317
   38    41     0     0     0
SMALL
USER_CHARGES

@<TRIPOS>ATOM
      1 C1         -0.0166    1.3756    0.0096 C.ar      1 <0>        -0.1205
      2 C2          1.1685    2.0902    0.0021 C.ar      1 <0>        -0.0738
      3 C3          2.3837    1.4259   -0.0135 C.ar      1 <0>        -0.1060
      4 C4          2.4141    0.0511   -0.0211 C.ar      1 <0>        -0.0809
      5 C5          1.2226   -0.6799   -0.0132 C.ar      1 <0>        -0.1884
      6 C6          0.0021   -0.0041    0.0020 C.ar      1 <0>        -0.0296
      7 C7          1.5769   -2.1110   -0.0238 C.2       1 <0>         0.5250
      8 O1          0.7785   -3.0264   -0.0207 O.2       1 <0>        -0.4400
      9 O2          2.9126   -2.2536   -0.0376 O.3       1 <0>        -0.2998
     10 C8          3.5293   -0.9632   -0.0371 C.3       1 <0>         0.2449
     11 C9          4.3892   -0.8032    1.1901 C.ar      1 <0>        -0.1042
     12 C10         4.5259    0.4399    1.7799 C.ar      1 <0>        -0.0908
     13 C11         5.3140    0.5892    2.9046 C.ar      1 <0>        -0.1433
     14 C12         5.9683   -0.5095    3.4425 C.ar      1 <0>         0.1182
     15 C13         5.8292   -1.7558    2.8492 C.ar      1 <0>        -0.1434
     16 C14         5.0357   -1.9009    1.7276 C.ar      1 <0>        -0.0715
     17 O3          6.7445   -0.3651    4.5487 O.3       1 <0>        -0.4984
     18 C15         4.3652   -0.7908   -1.2790 C.ar      1 <0>        -0.1048
     19 C16         4.4996    0.4602   -1.8523 C.ar      1 <0>        -0.0905
     20 C17         5.2650    0.6208   -2.9911 C.ar      1 <0>        -0.1433
     21 C18         5.8994   -0.4744   -3.5593 C.ar      1 <0>         0.1186
     22 C19         5.7632   -1.7285   -2.9819 C.ar      1 <0>        -0.1434
     23 C20         5.0010   -1.8829   -1.8401 C.ar      1 <0>        -0.0713
     24 O4          6.6525   -0.3191   -4.6798 O.3       1 <0>        -0.4982
     25 H1         -0.9605    1.9002    0.0259 H         1 <0>         0.1415
     26 H2          1.1457    3.1699    0.0081 H         1 <0>         0.1421
     27 H3          3.3064    1.9871   -0.0200 H         1 <0>         0.1416
     28 H4         -0.9246   -0.5588    0.0082 H         1 <0>         0.1404
     29 H5          4.0163    1.2949    1.3607 H         1 <0>         0.1355
     30 H6          5.4210    1.5605    3.3645 H         1 <0>         0.1348
     31 H7          6.3375   -2.6127    3.2661 H         1 <0>         0.1350
     32 H8          4.9236   -2.8717    1.2679 H         1 <0>         0.1350
     33 H9          6.2692   -0.4890    5.3816 H         1 <0>         0.3945
     34 H10         4.0056    1.3125   -1.4097 H         1 <0>         0.1352
     35 H11         5.3691    1.5981   -3.4389 H         1 <0>         0.1349
     36 H12         6.2561   -2.5826   -3.4223 H         1 <0>         0.1351
     37 H13         4.8983   -2.8582   -1.3877 H         1 <0>         0.1349
     38 H14         7.5825   -0.1209   -4.5042 H         1 <0>         0.3945
@<TRIPOS>BOND
     1    1    6 ar
     2    1    2 ar
     3    1   25 1
     4    2    3 ar
     5    2   26 1
     6    3    4 ar
     7    3   27 1
     8    4   10 1
     9    4    5 ar
    10    5    6 ar
    11    5    7 1
    12    6   28 1
    13    7    8 2
    14    7    9 1
    15    9   10 1
    16   10   11 1
    17   10   18 1
    18   11   16 ar
    19   11   12 ar
    20   12   13 ar
    21   12   29 1
    22   13   14 ar
    23   13   30 1
    24   14   15 ar
    25   14   17 1
    26   15   16 ar
    27   15   31 1
    28   16   32 1
    29   17   33 1
    30   18   23 ar
    31   18   19 ar
    32   19   20 ar
    33   19   34 1
    34   20   21 ar
    35   20   35 1
    36   21   22 ar
    37   21   24 1
    38   22   23 ar
    39   22   36 1
    40   23   37 1
    41   24   38 1
