@<TRIPOS>MOLECULE
ZINC00066436
   46    48     0     0     0
SMALL
USER_CHARGES
1-(1-benzyl-4-piperidyl)-3-(3-pyridyl)thiourea
@<TRIPOS>ATOM
      1 C1         -7.3774    8.0216   -2.8993 C.ar      1 <0>        -0.0834
      2 C2         -7.6861    6.9879   -2.0349 C.ar      1 <0>        -0.1131
      3 C3         -6.9382    6.7996   -0.8877 C.ar      1 <0>        -0.0961
      4 C4         -5.8819    7.6452   -0.6048 C.ar      1 <0>        -0.1644
      5 C5         -5.5767    8.6823   -1.4663 C.ar      1 <0>        -0.0948
      6 C6         -6.3211    8.8671   -2.6164 C.ar      1 <0>        -0.1138
      7 C7         -5.0668    7.4402    0.6461 C.3       1 <0>         0.0493
      8 C8         -2.9978    6.4982    1.4783 C.3       1 <0>         0.0058
      9 C9         -1.7753    5.6650    1.0866 C.3       1 <0>        -0.1582
     10 C10        -2.2249    4.2465    0.7256 C.3       1 <0>         0.1377
     11 C11        -3.2475    4.3177   -0.4119 C.3       1 <0>        -0.1596
     12 C12        -4.4273    5.1899    0.0233 C.3       1 <0>        -0.0003
     13 N1         -1.0663    3.4608    0.2938 N.pl3     1 <0>        -0.6843
     14 C13        -1.0828    2.1179    0.4069 C.2       1 <0>         0.5546
     15 S1         -2.4577    1.3303    1.0552 S.2       1 <0>        -0.5988
     16 N2         -0.0169    1.3950    0.0097 N.pl3     1 <0>        -0.6146
     17 C14        -0.0677   -0.0029    0.0436 C.ar      1 <0>         0.0526
     18 C15        -0.5846   -0.6645    1.1550 C.ar      1 <0>        -0.0241
     19 C16        -0.6181   -2.0491    1.1397 C.ar      1 <0>        -0.1635
     20 C17        -0.1321   -2.7242    0.0352 C.ar      1 <0>         0.1119
     21 N3          0.3556   -2.0682   -0.9994 N.ar      1 <0>        -0.4740
     22 C18         0.4018   -0.7511   -1.0277 C.ar      1 <0>         0.1071
     23 H1         -7.9613    8.1683   -3.7960 H         1 <0>         0.1359
     24 H2         -8.5114    6.3273   -2.2560 H         1 <0>         0.1367
     25 H3         -7.1794    5.9921   -0.2124 H         1 <0>         0.1324
     26 H4         -4.7542    9.3456   -1.2430 H         1 <0>         0.1306
     27 H5         -6.0797    9.6745   -3.2919 H         1 <0>         0.1358
     28 H6         -5.6954    7.0028    1.4218 H         1 <0>         0.1388
     29 H7         -4.6806    8.3999    0.9895 H         1 <0>         0.1360
     30 H8         -3.4803    6.0492    2.3465 H         1 <0>         0.1383
     31 H9         -2.6828    7.5127    1.7223 H         1 <0>         0.1369
     32 H10        -1.0793    5.6240    1.9245 H         1 <0>         0.1211
     33 H11        -1.2844    6.1211    0.2270 H         1 <0>         0.0935
     34 H12        -2.6800    3.7758    1.5969 H         1 <0>         0.1330
     35 H13        -2.7797    4.7526   -1.2951 H         1 <0>         0.0867
     36 H14        -3.6033    3.3140   -0.6446 H         1 <0>         0.1280
     37 H15        -4.9031    4.7471    0.8983 H         1 <0>         0.1381
     38 H16        -5.1506    5.2543   -0.7896 H         1 <0>         0.1343
     39 H17        -0.2872    3.9070   -0.0735 H         1 <0>         0.4041
     40 H18         0.7840    1.8437   -0.3034 H         1 <0>         0.4117
     41 H19        -0.9536   -0.1115    2.0061 H         1 <0>         0.1581
     42 H20        -1.0153   -2.5952    1.9826 H         1 <0>         0.1449
     43 H21        -0.1520   -3.8039    0.0198 H         1 <0>         0.1641
     44 H22         0.8085   -0.2490   -1.8931 H         1 <0>         0.1549
     45 N4         -3.9316    6.5477    0.3331 N.4       1 <0>        -0.3952
     46 H23        -3.4344    6.9157   -0.4864 H         1 <0>         0.4253
@<TRIPOS>BOND
     1    1    6 ar
     2    1    2 ar
     3    1   23 1
     4    2    3 ar
     5    2   24 1
     6    3    4 ar
     7    3   25 1
     8    4    5 ar
     9    4    7 1
    10    5    6 ar
    11    5   26 1
    12    6   27 1
    13    7   28 1
    14    7   29 1
    15    7   45 1
    16    8    9 1
    17    8   30 1
    18    8   31 1
    19    8   45 1
    20    9   10 1
    21    9   32 1
    22    9   33 1
    23   10   11 1
    24   10   13 1
    25   10   34 1
    26   11   12 1
    27   11   35 1
    28   11   36 1
    29   12   37 1
    30   12   38 1
    31   12   45 1
    32   13   14 1
    33   13   39 1
    34   14   15 2
    35   14   16 1
    36   16   17 1
    37   16   40 1
    38   17   22 ar
    39   17   18 ar
    40   18   19 ar
    41   18   41 1
    42   19   20 ar
    43   19   42 1
    44   20   21 ar
    45   20   43 1
    46   21   22 ar
    47   22   44 1
    48   45   46 1
@<TRIPOS>MOLECULE
ZINC04161545
   59    62     0     0     0
SMALL
USER_CHARGES
N-(4-cyclohexylphenyl)-2-(1-ethyl-5-phenyl-imidazol-2-yl)sulfanyl-acetamide
@<TRIPOS>ATOM
      1 C1          0.0978   -0.1101   -0.1340 C.3       1 <0>        -0.1763
      2 C2          0.0229    1.4155   -0.0453 C.3       1 <0>         0.0869
      3 N1          1.3784    1.9712   -0.0354 N.pl3     1 <0>        -0.4326
      4 C3          2.0841    2.4436   -1.1288 C.2       1 <0>         0.0227
      5 C4          3.2899    2.8616   -0.6620 C.2       1 <0>         0.0100
      6 N2          3.3216    2.6542    0.6604 N.2       1 <0>        -0.4883
      7 C5          2.1830    2.1274    1.0517 C.2       1 <0>         0.1785
      8 S1          1.7684    1.6909    2.7077 S.3       1 <0>         0.0647
      9 C6          3.2919    2.1815    3.5529 C.3       1 <0>        -0.1417
     10 C7          3.1644    1.8924    5.0264 C.2       1 <0>         0.5334
     11 O1          2.1439    1.4029    5.4622 O.2       1 <0>        -0.5044
     12 N3          4.1844    2.1779    5.8598 N.am      1 <0>        -0.6659
     13 C8          4.0307    2.0019    7.2394 C.ar      1 <0>         0.1350
     14 C9          4.6484    2.8749    8.1253 C.ar      1 <0>        -0.1383
     15 C10         4.4901    2.7018    9.4864 C.ar      1 <0>        -0.0962
     16 C11         3.7273    1.6536    9.9675 C.ar      1 <0>        -0.0855
     17 C12         3.1152    0.7794    9.0880 C.ar      1 <0>        -0.0991
     18 C13         3.2650    0.9504    7.7257 C.ar      1 <0>        -0.1151
     19 C14         3.5622    1.4637   11.4533 C.3       1 <0>        -0.0465
     20 C15         2.9062    2.7074   12.0566 C.3       1 <0>        -0.1107
     21 C16         2.7386    2.5146   13.5651 C.3       1 <0>        -0.1207
     22 C17         4.1105    2.2993   14.2073 C.3       1 <0>        -0.1211
     23 C18         4.7665    1.0557   13.6040 C.3       1 <0>        -0.1207
     24 C19         4.9341    1.2484   12.0955 C.3       1 <0>        -0.1102
     25 C20         1.6170    2.4855   -2.5302 C.ar      1 <0>        -0.0110
     26 C21         2.2035    3.3688   -3.4386 C.ar      1 <0>        -0.1007
     27 C22         1.7672    3.3980   -4.7469 C.ar      1 <0>        -0.1110
     28 C23         0.7421    2.5638   -5.1565 C.ar      1 <0>        -0.1184
     29 C24         0.1523    1.6904   -4.2598 C.ar      1 <0>        -0.1123
     30 C25         0.5835    1.6462   -2.9502 C.ar      1 <0>        -0.1331
     31 H1          0.7112   -0.4918    0.6821 H         1 <0>         0.0723
     32 H2         -0.9062   -0.5280   -0.0602 H         1 <0>         0.0841
     33 H3          0.5418   -0.3972   -1.0872 H         1 <0>         0.0670
     34 H4         -0.5224    1.8032   -0.9058 H         1 <0>         0.1035
     35 H5         -0.4936    1.7013    0.8710 H         1 <0>         0.0980
     36 H6          4.0857    3.2871   -1.2554 H         1 <0>         0.1768
     37 H7          4.1315    1.6196    3.1437 H         1 <0>         0.1292
     38 H8          3.4620    3.2480    3.4052 H         1 <0>         0.1292
     39 H9          5.0249    2.5054    5.5033 H         1 <0>         0.4146
     40 H10         5.2486    3.6907    7.7503 H         1 <0>         0.1257
     41 H11         4.9668    3.3829   10.1758 H         1 <0>         0.1256
     42 H12         2.5198   -0.0381    9.4669 H         1 <0>         0.1250
     43 H13         2.7873    0.2669    7.0394 H         1 <0>         0.1385
     44 H14         2.9327    0.5938   11.6408 H         1 <0>         0.0776
     45 H15         3.5356    3.5773   11.8692 H         1 <0>         0.0637
     46 H16         1.9288    2.8608   11.5991 H         1 <0>         0.0631
     47 H17         2.1091    1.6447   13.7526 H         1 <0>         0.0620
     48 H18         2.2713    3.4006   13.9949 H         1 <0>         0.0624
     49 H19         3.9911    2.1620   15.2820 H         1 <0>         0.0609
     50 H20         4.7400    3.1693   14.0199 H         1 <0>         0.0612
     51 H21         4.1370    0.1858   13.7915 H         1 <0>         0.0620
     52 H22         5.7439    0.9023   14.0615 H         1 <0>         0.0624
     53 H23         5.4014    0.3624   11.6657 H         1 <0>         0.0629
     54 H24         5.5635    2.1184   11.9081 H         1 <0>         0.0637
     55 H25         3.0002    4.0241   -3.1190 H         1 <0>         0.1287
     56 H26         2.2232    4.0774   -5.4519 H         1 <0>         0.1284
     57 H27         0.4009    2.5941   -6.1807 H         1 <0>         0.1251
     58 H28        -0.6471    1.0417   -4.5860 H         1 <0>         0.1257
     59 H29         0.1228    0.9636   -2.2515 H         1 <0>         0.1289
@<TRIPOS>BOND
     1    1    2 1
     2    1   31 1
     3    1   32 1
     4    1   33 1
     5    2    3 1
     6    2   34 1
     7    2   35 1
     8    3    7 1
     9    3    4 1
    10    4    5 2
    11    4   25 1
    12    5    6 1
    13    5   36 1
    14    6    7 2
    15    7    8 1
    16    8    9 1
    17    9   10 1
    18    9   37 1
    19    9   38 1
    20   10   11 2
    21   10   12 am
    22   12   13 1
    23   12   39 1
    24   13   18 ar
    25   13   14 ar
    26   14   15 ar
    27   14   40 1
    28   15   16 ar
    29   15   41 1
    30   16   17 ar
    31   16   19 1
    32   17   18 ar
    33   17   42 1
    34   18   43 1
    35   19   24 1
    36   19   20 1
    37   19   44 1
    38   20   21 1
    39   20   45 1
    40   20   46 1
    41   21   22 1
    42   21   47 1
    43   21   48 1
    44   22   23 1
    45   22   49 1
    46   22   50 1
    47   23   24 1
    48   23   51 1
    49   23   52 1
    50   24   53 1
    51   24   54 1
    52   25   30 ar
    53   25   26 ar
    54   26   27 ar
    55   26   55 1
    56   27   28 ar
    57   27   56 1
    58   28   29 ar
    59   28   57 1
    60   29   30 ar
    61   29   58 1
    62   30   59 1
@<TRIPOS>MOLECULE
ZINC04161545
   60    63     0     0     0
SMALL
USER_CHARGES
N-(4-cyclohexylphenyl)-2-(1-ethyl-5-phenyl-imidazol-2-yl)sulfanyl-acetamide
@<TRIPOS>ATOM
      1 C1          0.0978   -0.1101   -0.1340 C.3       1 <0>        -0.1851
      2 C2          0.0229    1.4155   -0.0453 C.3       1 <0>         0.0754
      3 N1          1.3784    1.9712   -0.0354 N.pl3     1 <0>        -0.3904
      4 C3          2.0841    2.4436   -1.1288 C.2       1 <0>         0.1215
      5 C4          3.2899    2.8616   -0.6620 C.2       1 <0>         0.0164
      6 C5          2.1830    2.1274    1.0517 C.cat     1 <0>         0.2412
      7 S1          1.7684    1.6909    2.7077 S.3       1 <0>         0.1845
      8 C6          3.2919    2.1815    3.5529 C.3       1 <0>        -0.2001
      9 C7          3.1644    1.8924    5.0264 C.2       1 <0>         0.5355
     10 O1          2.1439    1.4029    5.4622 O.2       1 <0>        -0.4946
     11 N2          4.1844    2.1779    5.8598 N.am      1 <0>        -0.6537
     12 C8          4.0307    2.0019    7.2394 C.ar      1 <0>         0.1173
     13 C9          4.6484    2.8749    8.1253 C.ar      1 <0>        -0.1309
     14 C10         4.4901    2.7018    9.4864 C.ar      1 <0>        -0.0954
     15 C11         3.7273    1.6536    9.9675 C.ar      1 <0>        -0.0718
     16 C12         3.1152    0.7794    9.0880 C.ar      1 <0>        -0.0993
     17 C13         3.2650    0.9504    7.7257 C.ar      1 <0>        -0.1112
     18 C14         3.5622    1.4637   11.4533 C.3       1 <0>        -0.0506
     19 C15         2.9062    2.7074   12.0566 C.3       1 <0>        -0.1101
     20 C16         2.7386    2.5146   13.5651 C.3       1 <0>        -0.1214
     21 C17         4.1105    2.2993   14.2073 C.3       1 <0>        -0.1220
     22 C18         4.7665    1.0557   13.6040 C.3       1 <0>        -0.1215
     23 C19         4.9341    1.2484   12.0955 C.3       1 <0>        -0.1099
     24 C20         1.6170    2.4855   -2.5302 C.ar      1 <0>        -0.0627
     25 C21         2.2035    3.3688   -3.4386 C.ar      1 <0>        -0.0808
     26 C22         1.7672    3.3980   -4.7469 C.ar      1 <0>        -0.1090
     27 C23         0.7421    2.5638   -5.1565 C.ar      1 <0>        -0.0852
     28 C24         0.1523    1.6904   -4.2598 C.ar      1 <0>        -0.1093
     29 C25         0.5835    1.6462   -2.9502 C.ar      1 <0>        -0.1116
     30 H1          0.7112   -0.4918    0.6821 H         1 <0>         0.0779
     31 H2         -0.9062   -0.5280   -0.0602 H         1 <0>         0.1066
     32 H3          0.5418   -0.3972   -1.0872 H         1 <0>         0.0778
     33 H4         -0.5224    1.8032   -0.9058 H         1 <0>         0.1316
     34 H5         -0.4936    1.7013    0.8710 H         1 <0>         0.1220
     35 H6          4.0857    3.2871   -1.2554 H         1 <0>         0.2262
     36 H7          4.1315    1.6196    3.1437 H         1 <0>         0.1396
     37 H8          3.4620    3.2480    3.4052 H         1 <0>         0.1398
     38 H9          5.0249    2.5054    5.5033 H         1 <0>         0.4150
     39 H10         5.2486    3.6907    7.7503 H         1 <0>         0.1269
     40 H11         4.9668    3.3829   10.1758 H         1 <0>         0.1301
     41 H12         2.5198   -0.0381    9.4669 H         1 <0>         0.1290
     42 H13         2.7873    0.2669    7.0394 H         1 <0>         0.1371
     43 H14         2.9327    0.5938   11.6408 H         1 <0>         0.0802
     44 H15         3.5356    3.5773   11.8692 H         1 <0>         0.0638
     45 H16         1.9288    2.8608   11.5991 H         1 <0>         0.0628
     46 H17         2.1091    1.6447   13.7526 H         1 <0>         0.0631
     47 H18         2.2713    3.4006   13.9949 H         1 <0>         0.0643
     48 H19         3.9911    2.1620   15.2820 H         1 <0>         0.0634
     49 H20         4.7400    3.1693   14.0199 H         1 <0>         0.0617
     50 H21         4.1370    0.1858   13.7915 H         1 <0>         0.0631
     51 H22         5.7439    0.9023   14.0615 H         1 <0>         0.0645
     52 H23         5.4014    0.3624   11.6657 H         1 <0>         0.0631
     53 H24         5.5635    2.1184   11.9081 H         1 <0>         0.0640
     54 H25         3.0002    4.0241   -3.1190 H         1 <0>         0.1340
     55 H26         2.2232    4.0774   -5.4519 H         1 <0>         0.1399
     56 H27         0.4009    2.5941   -6.1807 H         1 <0>         0.1374
     57 H28        -0.6471    1.0417   -4.5860 H         1 <0>         0.1380
     58 H29         0.1228    0.9636   -2.2515 H         1 <0>         0.1332
     59 N3          3.3223    2.6544    0.6609 N.pl3     1 <0>        -0.4927
     60 H30         4.1151    2.8735    1.2755 H         1 <0>         0.4718
@<TRIPOS>BOND
     1    1    2 1
     2    1   30 1
     3    1   31 1
     4    1   32 1
     5    2    3 1
     6    2   33 1
     7    2   34 1
     8    3    6 1
     9    3    4 1
    10    4    5 2
    11    4   24 1
    12    5   35 1
    13    5   59 1
    14    6    7 1
    15    6   59 2
    16    7    8 1
    17    8    9 1
    18    8   36 1
    19    8   37 1
    20    9   10 2
    21    9   11 am
    22   11   12 1
    23   11   38 1
    24   12   17 ar
    25   12   13 ar
    26   13   14 ar
    27   13   39 1
    28   14   15 ar
    29   14   40 1
    30   15   16 ar
    31   15   18 1
    32   16   17 ar
    33   16   41 1
    34   17   42 1
    35   18   23 1
    36   18   19 1
    37   18   43 1
    38   19   20 1
    39   19   44 1
    40   19   45 1
    41   20   21 1
    42   20   46 1
    43   20   47 1
    44   21   22 1
    45   21   48 1
    46   21   49 1
    47   22   23 1
    48   22   50 1
    49   22   51 1
    50   23   52 1
    51   23   53 1
    52   24   29 ar
    53   24   25 ar
    54   25   26 ar
    55   25   54 1
    56   26   27 ar
    57   26   55 1
    58   27   28 ar
    59   27   56 1
    60   28   29 ar
    61   28   57 1
    62   29   58 1
    63   59   60 1
@<TRIPOS>MOLECULE
ZINC06445734
   45    48     0     0     0
SMALL
USER_CHARGES
2-[[4-(4-chlorophenyl)-3H-imidazol-2-yl]sulfanyl]-N-(3-cyano-4,5,6,7-tetrahydrobenzothiophen-2-yl)acetamide
@<TRIPOS>ATOM
      1 C1         -4.6016   13.0820   -8.4376 C.ar      1 <0>        -0.1079
      2 C2         -4.9909   14.0736   -9.3139 C.ar      1 <0>        -0.0999
      3 C3         -5.1718   15.3697   -8.8612 C.ar      1 <0>        -0.0354
      4 C4         -4.9700   15.6774   -7.5262 C.ar      1 <0>        -0.0994
      5 C5         -4.5866   14.6933   -6.6390 C.ar      1 <0>        -0.0889
      6 C6         -4.4021   13.3848   -7.0894 C.ar      1 <0>        -0.0062
      7 C7         -3.9915   12.3257   -6.1440 C.2       1 <0>         0.0253
      8 C8         -3.7566   12.4714   -4.8137 C.2       1 <0>         0.0183
      9 N1         -3.4128   11.2767   -4.3159 N.2       1 <0>        -0.4863
     10 C9         -3.4112   10.3819   -5.2782 C.2       1 <0>         0.1854
     11 N2         -3.7710   10.9917   -6.4412 N.pl3     1 <0>        -0.5488
     12 H1         -3.8591   10.5588   -7.3383 H         1 <0>         0.4316
     13 S1         -3.0163    8.6748   -5.0929 S.3       1 <0>         0.0760
     14 C10        -2.6526    8.6269   -3.3204 C.3       1 <0>        -0.1402
     15 C11        -2.2787    7.2224   -2.9221 C.2       1 <0>         0.5311
     16 O1         -2.2599    6.3406   -3.7546 O.2       1 <0>        -0.4800
     17 N3         -1.9652    6.9463   -1.6407 N.am      1 <0>        -0.6134
     18 C12        -1.6207    5.6527   -1.2739 C.2       1 <0>         0.0856
     19 C13        -1.2707    5.1773   -0.0190 C.2       1 <0>        -0.1231
     20 C14        -0.9512    3.7654    0.0998 C.2       1 <0>        -0.0612
     21 C15        -1.0317    3.0588   -1.0494 C.2       1 <0>        -0.2035
     22 S2         -1.5238    4.2402   -2.2726 S.3       1 <0>         0.2585
     23 C16        -0.7609    1.5973   -1.2317 C.3       1 <0>        -0.0370
     24 C17        -0.0127    1.0858    0.0080 C.3       1 <0>        -0.1157
     25 C18        -0.7351    1.5825    1.2637 C.3       1 <0>        -0.1200
     26 C19        -0.5508    3.0936    1.4075 C.3       1 <0>        -0.0623
     27 C20        -1.2264    6.0465    1.1182 C.1       1 <0>         0.2658
     28 N4         -1.1913    6.7361    2.0203 N.1       1 <0>        -0.4204
     29 Cl1        -5.6543   16.6138   -9.9717 Cl        1 <0>        -0.0632
     30 H2         -4.4557   12.0726   -8.7929 H         1 <0>         0.1262
     31 H3         -5.1502   13.8397  -10.3562 H         1 <0>         0.1382
     32 H4         -5.1127   16.6901   -7.1791 H         1 <0>         0.1410
     33 H5         -4.4292   14.9346   -5.5981 H         1 <0>         0.1400
     34 H6         -3.8380   13.3911   -4.2534 H         1 <0>         0.1801
     35 H7         -3.5333    8.9412   -2.7603 H         1 <0>         0.1370
     36 H8         -1.8235    9.2997   -3.1014 H         1 <0>         0.1370
     37 H9         -1.9802    7.6515   -0.9749 H         1 <0>         0.4255
     38 H10        -0.1472    1.4455   -2.1196 H         1 <0>         0.0841
     39 H11        -1.7031    1.0599   -1.3396 H         1 <0>         0.0858
     40 H12         0.0021   -0.0041    0.0020 H         1 <0>         0.0756
     41 H13         1.0092    1.4651    0.0003 H         1 <0>         0.0695
     42 H14        -1.7982    1.3558    1.1833 H         1 <0>         0.0684
     43 H15        -0.3244    1.0808    2.1399 H         1 <0>         0.0720
     44 H16         0.4944    3.3126    1.6258 H         1 <0>         0.0804
     45 H17        -1.1789    3.4657    2.2169 H         1 <0>         0.0750
@<TRIPOS>BOND
     1    1    6 ar
     2    1    2 ar
     3    1   30 1
     4    2    3 ar
     5    2   31 1
     6    3    4 ar
     7    3   29 1
     8    4    5 ar
     9    4   32 1
    10    5    6 ar
    11    5   33 1
    12    6    7 1
    13    7   11 1
    14    7    8 2
    15    8    9 1
    16    8   34 1
    17    9   10 2
    18   10   11 1
    19   10   13 1
    20   11   12 1
    21   13   14 1
    22   14   15 1
    23   14   35 1
    24   14   36 1
    25   15   16 2
    26   15   17 am
    27   17   18 1
    28   17   37 1
    29   18   22 1
    30   18   19 2
    31   19   20 1
    32   19   27 1
    33   20   26 1
    34   20   21 2
    35   21   22 1
    36   21   23 1
    37   23   24 1
    38   23   38 1
    39   23   39 1
    40   24   25 1
    41   24   40 1
    42   24   41 1
    43   25   26 1
    44   25   42 1
    45   25   43 1
    46   26   44 1
    47   26   45 1
    48   27   28 3
@<TRIPOS>MOLECULE
ZINC06445734
   46    49     0     0     0
SMALL
USER_CHARGES
2-[[4-(4-chlorophenyl)-3H-imidazol-2-yl]sulfanyl]-N-(3-cyano-4,5,6,7-tetrahydrobenzothiophen-2-yl)acetamide
@<TRIPOS>ATOM
      1 C1         -4.6016   13.0820   -8.4376 C.ar      1 <0>        -0.0823
      2 C2         -4.9909   14.0736   -9.3139 C.ar      1 <0>        -0.1011
      3 C3         -5.1718   15.3697   -8.8612 C.ar      1 <0>        -0.0070
      4 C4         -4.9700   15.6774   -7.5262 C.ar      1 <0>        -0.1016
      5 C5         -4.5866   14.6933   -6.6390 C.ar      1 <0>        -0.0660
      6 C6         -4.4021   13.3848   -7.0894 C.ar      1 <0>        -0.0630
      7 C7         -3.9915   12.3257   -6.1440 C.2       1 <0>         0.1312
      8 C8         -3.7566   12.4714   -4.8137 C.2       1 <0>         0.0198
      9 C9         -3.4112   10.3819   -5.2782 C.cat     1 <0>         0.2573
     10 N1         -3.7710   10.9917   -6.4412 N.pl3     1 <0>        -0.5026
     11 H1         -3.8591   10.5588   -7.3383 H         1 <0>         0.4739
     12 S1         -3.0163    8.6748   -5.0929 S.3       1 <0>         0.2018
     13 C10        -2.6526    8.6269   -3.3204 C.3       1 <0>        -0.1998
     14 C11        -2.2787    7.2224   -2.9221 C.2       1 <0>         0.5336
     15 O1         -2.2599    6.3406   -3.7546 O.2       1 <0>        -0.4728
     16 N2         -1.9652    6.9463   -1.6407 N.am      1 <0>        -0.6040
     17 C12        -1.6207    5.6527   -1.2739 C.2       1 <0>         0.0580
     18 C13        -1.2707    5.1773   -0.0190 C.2       1 <0>        -0.0991
     19 C14        -0.9512    3.7654    0.0998 C.2       1 <0>        -0.0657
     20 C15        -1.0317    3.0588   -1.0494 C.2       1 <0>        -0.1856
     21 S2         -1.5238    4.2402   -2.2726 S.3       1 <0>         0.2607
     22 C16        -0.7609    1.5973   -1.2317 C.3       1 <0>        -0.0414
     23 C17        -0.0127    1.0858    0.0080 C.3       1 <0>        -0.1168
     24 C18        -0.7351    1.5825    1.2637 C.3       1 <0>        -0.1217
     25 C19        -0.5508    3.0936    1.4075 C.3       1 <0>        -0.0637
     26 C20        -1.2264    6.0465    1.1182 C.1       1 <0>         0.2593
     27 N3         -1.1913    6.7361    2.0203 N.1       1 <0>        -0.4097
     28 Cl1        -5.6543   16.6138   -9.9717 Cl        1 <0>        -0.0363
     29 H2         -4.4557   12.0726   -8.7929 H         1 <0>         0.1329
     30 H3         -5.1502   13.8397  -10.3562 H         1 <0>         0.1499
     31 H4         -5.1127   16.6901   -7.1791 H         1 <0>         0.1518
     32 H5         -4.4292   14.9346   -5.5981 H         1 <0>         0.1446
     33 H6         -3.8380   13.3911   -4.2534 H         1 <0>         0.2291
     34 H7         -3.5333    8.9412   -2.7603 H         1 <0>         0.1472
     35 H8         -1.8235    9.2997   -3.1014 H         1 <0>         0.1474
     36 H9         -1.9802    7.6515   -0.9749 H         1 <0>         0.4251
     37 H10        -0.1472    1.4455   -2.1196 H         1 <0>         0.0872
     38 H11        -1.7031    1.0599   -1.3396 H         1 <0>         0.0897
     39 H12         0.0021   -0.0041    0.0020 H         1 <0>         0.0795
     40 H13         1.0092    1.4651    0.0003 H         1 <0>         0.0709
     41 H14        -1.7982    1.3558    1.1833 H         1 <0>         0.0694
     42 H15        -0.3244    1.0808    2.1399 H         1 <0>         0.0758
     43 H16         0.4944    3.3126    1.6258 H         1 <0>         0.0831
     44 H17        -1.1789    3.4657    2.2169 H         1 <0>         0.0768
     45 N4         -3.4126   11.2765   -4.3151 N.pl3     1 <0>        -0.4908
     46 H18        -3.1850   11.0884   -3.3317 H         1 <0>         0.4751
@<TRIPOS>BOND
     1    1    6 ar
     2    1    2 ar
     3    1   29 1
     4    2    3 ar
     5    2   30 1
     6    3    4 ar
     7    3   28 1
     8    4    5 ar
     9    4   31 1
    10    5    6 ar
    11    5   32 1
    12    6    7 1
    13    7   10 1
    14    7    8 2
    15    8   33 1
    16    8   45 1
    17    9   10 1
    18    9   12 1
    19    9   45 2
    20   10   11 1
    21   12   13 1
    22   13   14 1
    23   13   34 1
    24   13   35 1
    25   14   15 2
    26   14   16 am
    27   16   17 1
    28   16   36 1
    29   17   21 1
    30   17   18 2
    31   18   19 1
    32   18   26 1
    33   19   25 1
    34   19   20 2
    35   20   21 1
    36   20   22 1
    37   22   23 1
    38   22   37 1
    39   22   38 1
    40   23   24 1
    41   23   39 1
    42   23   40 1
    43   24   25 1
    44   24   41 1
    45   24   42 1
    46   25   43 1
    47   25   44 1
    48   26   27 3
    49   45   46 1
@<TRIPOS>MOLECULE
ZINC33676151
   57    60     0     0     0
SMALL
USER_CHARGES

@<TRIPOS>ATOM
      1 C1         -0.0167    1.3784    0.0096 C.ar      1 <0>        -0.1405
      2 C2          1.1698    2.0883    0.0021 C.ar      1 <0>        -0.0731
      3 C3          2.3773    1.4175   -0.0134 C.ar      1 <0>        -0.1387
      4 C4          2.3989    0.0304   -0.0210 C.ar      1 <0>         0.1116
      5 C5          1.2070   -0.6796   -0.0130 C.ar      1 <0>        -0.2082
      6 C6          0.0021   -0.0041    0.0020 C.ar      1 <0>        -0.0807
      7 O1          3.5855   -0.6319   -0.0368 O.3       1 <0>        -0.3056
      8 C7          3.5315   -2.0598   -0.0438 C.3       1 <0>         0.0432
      9 C8          4.9536   -2.6239   -0.0615 C.3       1 <0>         0.0868
     10 N1          4.8982   -4.0879   -0.0687 N.pl3     1 <0>        -0.4201
     11 C9          4.8746   -4.8762    1.0381 C.ar      1 <0>         0.0617
     12 C10         4.8935   -4.6070    2.4088 C.ar      1 <0>        -0.0699
     13 C11         4.8597   -5.6471    3.3105 C.ar      1 <0>        -0.0732
     14 C12         4.8071   -6.9606    2.8682 C.ar      1 <0>        -0.0620
     15 C13         4.7883   -7.2431    1.5179 C.ar      1 <0>        -0.0929
     16 C14         4.8212   -6.2082    0.5958 C.ar      1 <0>         0.0775
     17 N2          4.8152   -6.1544   -0.7885 N.pl3     1 <0>        -0.4756
     18 C15         4.8582   -4.8364   -1.1427 C.cat     1 <0>         0.6430
     19 N3          4.8623   -4.3639   -2.4382 N.pl3     1 <0>        -0.7947
     20 C16         4.7663   -7.2985   -1.7023 C.3       1 <0>         0.0853
     21 C17         3.3079   -7.6419   -2.0120 C.3       1 <0>        -0.0363
     22 N4          3.2588   -8.7891   -2.9282 N.4       1 <0>        -0.3797
     23 C18         3.8594   -8.4127   -4.2136 C.3       1 <0>        -0.0185
     24 C19         3.8844   -9.6271   -5.1443 C.3       1 <0>        -0.1463
     25 C20         2.4519  -10.1181   -5.3725 C.3       1 <0>        -0.1422
     26 C21         1.8103  -10.4372   -4.0191 C.3       1 <0>        -0.1474
     27 C22         1.8621   -9.1927   -3.1302 C.3       1 <0>        -0.0062
     28 H1         -0.9596    1.9047    0.0260 H         1 <0>         0.1330
     29 H2          1.1525    3.1682    0.0080 H         1 <0>         0.1395
     30 H3          3.3038    1.9724   -0.0200 H         1 <0>         0.1365
     31 H4          1.2211   -1.7595   -0.0193 H         1 <0>         0.1183
     32 H5         -0.9260   -0.5563    0.0082 H         1 <0>         0.1291
     33 H6          3.0134   -2.4083    0.8497 H         1 <0>         0.0808
     34 H7          2.9951   -2.3988   -0.9302 H         1 <0>         0.0688
     35 H8          5.4716   -2.2755   -0.9550 H         1 <0>         0.1274
     36 H9          5.4899   -2.2850    0.8248 H         1 <0>         0.1438
     37 H10         4.9348   -3.5866    2.7600 H         1 <0>         0.1547
     38 H11         4.8747   -5.4385    4.3701 H         1 <0>         0.1615
     39 H12         4.7810   -7.7676    3.5856 H         1 <0>         0.1601
     40 H13         4.7480   -8.2681    1.1800 H         1 <0>         0.1465
     41 H14         4.8972   -3.4092   -2.6062 H         1 <0>         0.4468
     42 H15         5.2847   -7.0469   -2.6275 H         1 <0>         0.1262
     43 H16         5.2505   -8.1567   -1.2362 H         1 <0>         0.1433
     44 H17         2.7895   -7.8934   -1.0868 H         1 <0>         0.1491
     45 H18         2.8236   -6.7837   -2.4780 H         1 <0>         0.1385
     46 H19         3.2702   -7.6176   -4.6705 H         1 <0>         0.1339
     47 H20         4.8777   -8.0605   -4.0492 H         1 <0>         0.1265
     48 H21         4.3290   -9.3452   -6.0987 H         1 <0>         0.1183
     49 H22         4.4736  -10.4229   -4.6885 H         1 <0>         0.0924
     50 H23         1.8759   -9.3408   -5.8747 H         1 <0>         0.0841
     51 H24         2.4685  -11.0169   -5.9890 H         1 <0>         0.1010
     52 H25         0.7724  -10.7342   -4.1693 H         1 <0>         0.1194
     53 H26         2.3565  -11.2497   -3.5400 H         1 <0>         0.0919
     54 H27         1.4060   -9.4164   -2.1658 H         1 <0>         0.1349
     55 H28         1.3155   -8.3809   -3.6101 H         1 <0>         0.1321
     56 H29         4.8302   -4.9863   -3.1815 H         1 <0>         0.4354
     57 H30         3.7761   -9.5585   -2.5301 H         1 <0>         0.4288
@<TRIPOS>BOND
     1    1    6 ar
     2    1    2 ar
     3    1   28 1
     4    2    3 ar
     5    2   29 1
     6    3    4 ar
     7    3   30 1
     8    4    5 ar
     9    4    7 1
    10    5    6 ar
    11    5   31 1
    12    6   32 1
    13    7    8 1
    14    8    9 1
    15    8   33 1
    16    8   34 1
    17    9   10 1
    18    9   35 1
    19    9   36 1
    20   10   18 2
    21   10   11 1
    22   11   16 ar
    23   11   12 ar
    24   12   13 ar
    25   12   37 1
    26   13   14 ar
    27   13   38 1
    28   14   15 ar
    29   14   39 1
    30   15   16 ar
    31   15   40 1
    32   16   17 1
    33   17   18 1
    34   17   20 1
    35   18   19 1
    36   19   41 1
    37   19   56 1
    38   20   21 1
    39   20   42 1
    40   20   43 1
    41   21   22 1
    42   21   44 1
    43   21   45 1
    44   22   27 1
    45   22   23 1
    46   22   57 1
    47   23   24 1
    48   23   46 1
    49   23   47 1
    50   24   25 1
    51   24   48 1
    52   24   49 1
    53   25   26 1
    54   25   50 1
    55   25   51 1
    56   26   27 1
    57   26   52 1
    58   26   53 1
    59   27   54 1
    60   27   55 1
@<TRIPOS>MOLECULE
ZINC01677751
   44    46     0     0     0
SMALL
USER_CHARGES
3-(2-chlorophenothiazin-10-yl)propyl-trimethyl-ammonium
@<TRIPOS>ATOM
      1 C1         -4.8486    1.4518    1.5570 C.3       1 <0>        -0.0531
      2 N1         -4.2817    1.9561    0.2991 N.4       1 <0>        -0.2694
      3 C2         -4.3016    3.4249    0.3072 C.3       1 <0>        -0.0453
      4 C3         -5.0798    1.4618   -0.8307 C.3       1 <0>        -0.0525
      5 C4         -2.8966    1.4859    0.1630 C.3       1 <0>        -0.0068
      6 C5         -2.8759   -0.0439    0.1546 C.3       1 <0>        -0.1873
      7 C6         -1.4333   -0.5336    0.0129 C.3       1 <0>         0.1188
      8 N2         -1.4134   -1.9985    0.0048 N.pl3     1 <0>        -0.5619
      9 C7         -1.5297   -2.6361   -1.2274 C.ar      1 <0>         0.1842
     10 C8         -2.1193   -1.9544   -2.2846 C.ar      1 <0>        -0.1641
     11 C9         -2.2413   -2.5546   -3.5232 C.ar      1 <0>        -0.0788
     12 C10        -1.7720   -3.8392   -3.7227 C.ar      1 <0>        -0.1271
     13 C11        -1.1802   -4.5271   -2.6792 C.ar      1 <0>        -0.0533
     14 C12        -1.0558   -3.9309   -1.4324 C.ar      1 <0>        -0.1513
     15 S1         -0.3014   -4.8244   -0.1152 S.3       1 <0>         0.0423
     16 C13        -0.7874   -3.9427    1.3303 C.ar      1 <0>        -0.1475
     17 C14        -1.2854   -2.6463    1.2305 C.ar      1 <0>         0.2002
     18 C15        -1.6665   -1.9742    2.3869 C.ar      1 <0>        -0.1608
     19 C16        -1.5487   -2.5853    3.6221 C.ar      1 <0>         0.0017
     20 C17        -1.0509   -3.8718    3.7163 C.ar      1 <0>        -0.1200
     21 C18        -0.6711   -4.5499    2.5719 C.ar      1 <0>        -0.0415
     22 Cl1        -2.0261   -1.7345    5.0580 Cl        1 <0>        -0.0545
     23 H1         -4.2564    1.8185    2.3953 H         1 <0>         0.1238
     24 H2         -5.8763    1.8006    1.6579 H         1 <0>         0.1249
     25 H3         -4.8339    0.3619    1.5510 H         1 <0>         0.1218
     26 H4         -3.8809    3.7991   -0.6261 H         1 <0>         0.1225
     27 H5         -5.3293    3.7738    0.4082 H         1 <0>         0.1240
     28 H6         -3.7093    3.7917    1.1455 H         1 <0>         0.1226
     29 H7         -5.0651    0.3719   -0.8367 H         1 <0>         0.1217
     30 H8         -6.1076    1.8106   -0.7297 H         1 <0>         0.1246
     31 H9         -4.6592    1.8360   -1.7640 H         1 <0>         0.1234
     32 H10        -2.3044    1.8527    1.0014 H         1 <0>         0.1328
     33 H11        -2.4759    1.8601   -0.7703 H         1 <0>         0.1331
     34 H12        -3.2966   -0.4181    1.0879 H         1 <0>         0.0969
     35 H13        -3.4681   -0.4107   -0.6837 H         1 <0>         0.0986
     36 H14        -1.0126   -0.1594   -0.9204 H         1 <0>         0.0980
     37 H15        -0.8411   -0.1669    0.8512 H         1 <0>         0.0962
     38 H16        -2.4880   -0.9503   -2.1359 H         1 <0>         0.1238
     39 H17        -2.7052   -2.0183   -4.3378 H         1 <0>         0.1331
     40 H18        -1.8678   -4.3053   -4.6922 H         1 <0>         0.1373
     41 H19        -0.8141   -5.5311   -2.8351 H         1 <0>         0.1389
     42 H20        -2.0565   -0.9693    2.3201 H         1 <0>         0.1339
     43 H21        -0.9591   -4.3468    4.6819 H         1 <0>         0.1476
     44 H22        -0.2831   -5.5551    2.6455 H         1 <0>         0.1487
@<TRIPOS>BOND
     1    1    2 1
     2    1   23 1
     3    1   24 1
     4    1   25 1
     5    2    3 1
     6    2    4 1
     7    2    5 1
     8    3   26 1
     9    3   27 1
    10    3   28 1
    11    4   29 1
    12    4   30 1
    13    4   31 1
    14    5    6 1
    15    5   32 1
    16    5   33 1
    17    6    7 1
    18    6   34 1
    19    6   35 1
    20    7    8 1
    21    7   36 1
    22    7   37 1
    23    8   17 1
    24    8    9 1
    25    9   14 ar
    26    9   10 ar
    27   10   11 ar
    28   10   38 1
    29   11   12 ar
    30   11   39 1
    31   12   13 ar
    32   12   40 1
    33   13   14 ar
    34   13   41 1
    35   14   15 1
    36   15   16 1
    37   16   21 ar
    38   16   17 ar
    39   17   18 ar
    40   18   19 ar
    41   18   42 1
    42   19   20 ar
    43   19   22 1
    44   20   21 ar
    45   20   43 1
    46   21   44 1
@<TRIPOS>MOLECULE
ZINC00020248
   46    48     0     0     0
SMALL
USER_CHARGES

@<TRIPOS>ATOM
      1 C1         -5.6600    1.3618    0.4597 C.3       1 <0>        -0.0474
      2 N1         -5.6471   -0.0878    0.2218 N.4       1 <0>        -0.3867
      3 C2         -6.3574   -0.3850   -1.0293 C.3       1 <0>        -0.0523
      4 C3         -4.2581   -0.5548    0.1191 C.3       1 <0>        -0.0083
      5 C4         -4.2405   -2.0797   -0.0038 C.3       1 <0>        -0.1741
      6 C5         -2.7938   -2.5661   -0.1108 C.3       1 <0>         0.1309
      7 N2         -2.7704   -4.0309   -0.1190 N.pl3     1 <0>        -0.5935
      8 C6         -2.7303   -4.6837   -1.3451 C.ar      1 <0>         0.1859
      9 C7         -1.8260   -4.1660   -2.2811 C.ar      1 <0>        -0.1574
     10 C8         -1.6797   -4.7476   -3.5192 C.ar      1 <0>        -0.0952
     11 C9         -2.4365   -5.8609   -3.8384 C.ar      1 <0>        -0.1332
     12 C10        -3.3330   -6.3646   -2.9249 C.ar      1 <0>        -0.0999
     13 C11        -3.5037   -5.7750   -1.6688 C.ar      1 <0>        -0.1089
     14 C12        -4.5743   -6.4166   -0.8216 C.3       1 <0>        -0.0721
     15 C13        -4.9918   -5.6033    0.3783 C.3       1 <0>        -0.0690
     16 C14        -3.8887   -5.4681    1.3836 C.ar      1 <0>        -0.0980
     17 C15        -2.7839   -4.6994    1.1019 C.ar      1 <0>         0.1741
     18 C16        -1.7322   -4.5882    1.9998 C.ar      1 <0>        -0.1187
     19 C17        -1.8086   -5.2524    3.2126 C.ar      1 <0>        -0.0223
     20 C18        -2.9248   -6.0132    3.5136 C.ar      1 <0>        -0.1131
     21 C19        -3.9754   -6.1256    2.6005 C.ar      1 <0>        -0.0889
     22 Cl1        -0.5058   -5.1313    4.3535 Cl        1 <0>        -0.0554
     23 H1         -6.6906    1.7083    0.5359 H         1 <0>         0.1247
     24 H2         -5.1330    1.5823    1.3879 H         1 <0>         0.1236
     25 H3         -5.1660    1.8703   -0.3683 H         1 <0>         0.1224
     26 H4         -5.8633    0.1235   -1.8572 H         1 <0>         0.1230
     27 H5         -6.3478   -1.4606   -1.2058 H         1 <0>         0.1233
     28 H6         -7.3880   -0.0385   -0.9531 H         1 <0>         0.1247
     29 H7         -3.7907   -0.1139   -0.7614 H         1 <0>         0.1315
     30 H8         -3.7074   -0.2558    1.0110 H         1 <0>         0.1322
     31 H9         -4.7079   -2.5206    0.8766 H         1 <0>         0.0896
     32 H10        -4.7912   -2.3787   -0.8957 H         1 <0>         0.0908
     33 H11        -2.3515   -2.1905   -1.0335 H         1 <0>         0.0902
     34 H12        -2.2229   -2.1984    0.7418 H         1 <0>         0.0815
     35 H13        -1.2357   -3.2979   -2.0274 H         1 <0>         0.1217
     36 H14        -0.9815   -4.3392   -4.2348 H         1 <0>         0.1273
     37 H15        -2.3238   -6.3333   -4.8030 H         1 <0>         0.1262
     38 H16        -3.9182   -7.2346   -3.1839 H         1 <0>         0.1241
     39 H17        -5.4518   -6.5884   -1.4450 H         1 <0>         0.0825
     40 H18        -4.2074   -7.3823   -0.4739 H         1 <0>         0.0763
     41 H19        -5.2905   -4.6094    0.0453 H         1 <0>         0.0673
     42 H20        -5.8457   -6.0866    0.8532 H         1 <0>         0.0790
     43 H21        -0.8653   -3.9919    1.7562 H         1 <0>         0.1372
     44 H22        -2.9858   -6.5230    4.4638 H         1 <0>         0.1382
     45 H23        -4.8449   -6.7215    2.8354 H         1 <0>         0.1390
     46 H24        -6.1044   -0.5585    0.9882 H         1 <0>         0.4269
@<TRIPOS>BOND
     1    1    2 1
     2    1   23 1
     3    1   24 1
     4    1   25 1
     5    2    3 1
     6    2    4 1
     7    2   46 1
     8    3   26 1
     9    3   27 1
    10    3   28 1
    11    4    5 1
    12    4   29 1
    13    4   30 1
    14    5    6 1
    15    5   31 1
    16    5   32 1
    17    6    7 1
    18    6   33 1
    19    6   34 1
    20    7   17 1
    21    7    8 1
    22    8   13 ar
    23    8    9 ar
    24    9   10 ar
    25    9   35 1
    26   10   11 ar
    27   10   36 1
    28   11   12 ar
    29   11   37 1
    30   12   13 ar
    31   12   38 1
    32   13   14 1
    33   14   15 1
    34   14   39 1
    35   14   40 1
    36   15   16 1
    37   15   41 1
    38   15   42 1
    39   16   21 ar
    40   16   17 ar
    41   17   18 ar
    42   18   19 ar
    43   18   43 1
    44   19   20 ar
    45   19   22 1
    46   20   21 ar
    47   20   44 1
    48   21   45 1
@<TRIPOS>MOLECULE
ZINC00044027
   41    43     0     0     0
SMALL
USER_CHARGES

@<TRIPOS>ATOM
      1 C1         -4.8538   -4.0638    0.9108 C.3       1 <0>        -0.0548
      2 N1         -4.6244   -2.8061    1.6344 N.4       1 <0>        -0.3863
      3 C2         -4.0000   -3.0949    2.9324 C.3       1 <0>        -0.0478
      4 C3         -3.7364   -1.9420    0.8453 C.3       1 <0>        -0.0093
      5 C4         -4.4383   -1.5396   -0.4533 C.3       1 <0>        -0.1865
      6 C5         -3.5134   -0.6397   -1.2752 C.3       1 <0>         0.1190
      7 N2         -4.1855   -0.2544   -2.5186 N.pl3     1 <0>        -0.5621
      8 C6         -4.9466    0.9115   -2.5039 C.ar      1 <0>         0.1833
      9 C7         -5.4466    1.3707   -1.2896 C.ar      1 <0>        -0.1632
     10 C8         -6.2007    2.5274   -1.2376 C.ar      1 <0>        -0.0789
     11 C9         -6.4648    3.2382   -2.3930 C.ar      1 <0>        -0.1269
     12 C10        -5.9746    2.7903   -3.6059 C.ar      1 <0>        -0.0533
     13 C11        -5.2180    1.6285   -3.6658 C.ar      1 <0>        -0.1513
     14 S1         -4.6102    1.0681   -5.2211 S.3       1 <0>         0.0418
     15 C12        -4.1728   -0.6126   -4.9268 C.ar      1 <0>        -0.1476
     16 C13        -4.0101   -1.0788   -3.6268 C.ar      1 <0>         0.2001
     17 C14        -3.6645   -2.4105   -3.4235 C.ar      1 <0>        -0.1605
     18 C15        -3.4778   -3.2563   -4.5018 C.ar      1 <0>         0.0017
     19 C16        -3.6338   -2.7836   -5.7916 C.ar      1 <0>        -0.1199
     20 C17        -3.9865   -1.4684   -6.0025 C.ar      1 <0>        -0.0415
     21 Cl1        -3.0468   -4.9167   -4.2348 Cl        1 <0>        -0.0547
     22 H1         -5.5127   -4.7049    1.4964 H         1 <0>         0.1270
     23 H2         -5.3171   -3.8495   -0.0523 H         1 <0>         0.1230
     24 H3         -3.9018   -4.5701    0.7514 H         1 <0>         0.1245
     25 H4         -3.0479   -3.6012    2.7730 H         1 <0>         0.1232
     26 H5         -3.8297   -2.1617    3.4693 H         1 <0>         0.1245
     27 H6         -4.6589   -3.7360    3.5180 H         1 <0>         0.1260
     28 H7         -3.4947   -1.0479    1.4199 H         1 <0>         0.1356
     29 H8         -2.8190   -2.4818    0.6102 H         1 <0>         0.1342
     30 H9         -4.6799   -2.4338   -1.0279 H         1 <0>         0.0966
     31 H10        -5.3556   -0.9999   -0.2183 H         1 <0>         0.0979
     32 H11        -3.2718    0.2545   -0.7007 H         1 <0>         0.0984
     33 H12        -2.5960   -1.1794   -1.5103 H         1 <0>         0.0962
     34 H13        -5.2447    0.8199   -0.3828 H         1 <0>         0.1245
     35 H14        -6.5853    2.8770   -0.2909 H         1 <0>         0.1332
     36 H15        -7.0538    4.1423   -2.3487 H         1 <0>         0.1374
     37 H16        -6.1810    3.3459   -4.5088 H         1 <0>         0.1390
     38 H17        -3.5416   -2.7862   -2.4184 H         1 <0>         0.1339
     39 H18        -3.4863   -3.4459   -6.6318 H         1 <0>         0.1476
     40 H19        -4.1082   -1.1006   -7.0106 H         1 <0>         0.1483
     41 H20        -5.5056   -2.3374    1.7820 H         1 <0>         0.4275
@<TRIPOS>BOND
     1    1    2 1
     2    1   22 1
     3    1   23 1
     4    1   24 1
     5    2    3 1
     6    2    4 1
     7    2   41 1
     8    3   25 1
     9    3   26 1
    10    3   27 1
    11    4    5 1
    12    4   28 1
    13    4   29 1
    14    5    6 1
    15    5   30 1
    16    5   31 1
    17    6    7 1
    18    6   32 1
    19    6   33 1
    20    7   16 1
    21    7    8 1
    22    8   13 ar
    23    8    9 ar
    24    9   10 ar
    25    9   34 1
    26   10   11 ar
    27   10   35 1
    28   11   12 ar
    29   11   36 1
    30   12   13 ar
    31   12   37 1
    32   13   14 1
    33   14   15 1
    34   15   20 ar
    35   15   16 ar
    36   16   17 ar
    37   17   18 ar
    38   17   38 1
    39   18   19 ar
    40   18   21 1
    41   19   20 ar
    42   19   39 1
    43   20   40 1
@<TRIPOS>MOLECULE
ZINC18098320
   65    66     0     0     0
SMALL
USER_CHARGES

@<TRIPOS>ATOM
      1 C1          1.5544   -1.2947    5.0397 C.ar      1 <0>        -0.0900
      2 C2          1.2102   -0.4834    6.1030 C.ar      1 <0>        -0.0921
      3 C3          1.1724    0.8906    5.9426 C.ar      1 <0>        -0.0324
      4 C4          1.4791    1.4554    4.7170 C.ar      1 <0>        -0.0880
      5 C5          1.8239    0.6486    3.6505 C.ar      1 <0>        -0.1127
      6 C6          1.8626   -0.7306    3.8087 C.ar      1 <0>         0.1290
      7 N1          2.2121   -1.5503    2.7298 N.pl3     1 <0>        -0.6143
      8 C7          1.6369   -2.7845    2.5938 C.2       1 <0>         0.7195
      9 N2          0.6688   -3.1548    3.4104 N.2       1 <0>        -0.6471
     10 C8          0.1644   -4.4030    3.3357 C.cat     1 <0>         0.7146
     11 N3         -1.1310   -4.5905    3.3918 N.pl3     1 <0>        -0.6238
     12 C9         -1.6790   -5.9467    3.3107 C.3       1 <0>         0.0759
     13 C10        -3.2052   -5.8862    3.3998 C.3       1 <0>        -0.1360
     14 C11        -3.7776   -7.3026    3.3151 C.3       1 <0>        -0.1162
     15 C12        -5.3038   -7.2421    3.4043 C.3       1 <0>        -0.1160
     16 C13        -5.8762   -8.6585    3.3196 C.3       1 <0>        -0.1303
     17 C14        -7.4024   -8.5980    3.4087 C.3       1 <0>         0.1417
     18 N4         -7.9504   -9.9542    3.3276 N.pl3     1 <0>        -0.7044
     19 C15        -9.3097  -10.1509    3.3864 C.2       1 <0>         0.6415
     20 N5        -10.1161   -9.1280    3.3935 N.2       1 <0>        -0.8016
     21 N6         -9.8197  -11.4315    3.4379 N.pl3     1 <0>        -0.6783
     22 C16        -8.9686  -12.5071    3.5608 C.2       1 <0>         0.6548
     23 N7         -9.4628  -13.7853    3.4855 N.pl3     1 <0>        -0.8738
     24 N8         -7.6854  -12.3100    3.7498 N.2       1 <0>        -0.6230
     25 C17        -6.8569  -13.3745    3.9908 C.ar      1 <0>         0.1447
     26 C18        -7.1610  -14.2836    5.0056 C.ar      1 <0>        -0.1551
     27 C19        -6.3229  -15.3532    5.2434 C.ar      1 <0>        -0.0871
     28 C20        -5.1820  -15.5259    4.4783 C.ar      1 <0>        -0.0575
     29 C21        -4.8750  -14.6278    3.4703 C.ar      1 <0>        -0.0892
     30 C22        -5.7084  -13.5576    3.2187 C.ar      1 <0>        -0.1205
     31 Cl1        -4.1318  -16.8739    4.7844 Cl        1 <0>        -0.0699
     32 N9          1.0129   -5.4834    3.2003 N.pl3     1 <0>        -0.8517
     33 N10         2.0652   -3.6339    1.6118 N.pl3     1 <0>        -0.8561
     34 Cl2         0.7388    1.9076    7.2811 Cl        1 <0>        -0.0496
     35 H1          1.5881   -2.3667    5.1666 H         1 <0>         0.1430
     36 H2          0.9701   -0.9216    7.0604 H         1 <0>         0.1427
     37 H3          1.4484    2.5279    4.5944 H         1 <0>         0.1466
     38 H4          2.0628    1.0898    2.6941 H         1 <0>         0.1415
     39 H5          2.8620   -1.2437    2.0783 H         1 <0>         0.4349
     40 H6         -1.3881   -6.4001    2.3631 H         1 <0>         0.0974
     41 H7         -1.2904   -6.5455    4.1344 H         1 <0>         0.0988
     42 H8         -3.4962   -5.4328    4.3474 H         1 <0>         0.0839
     43 H9         -3.5939   -5.2874    2.5761 H         1 <0>         0.0826
     44 H10        -3.4867   -7.7560    2.3675 H         1 <0>         0.0704
     45 H11        -3.3890   -7.9014    4.1389 H         1 <0>         0.0713
     46 H12        -5.5947   -6.7887    4.3518 H         1 <0>         0.0694
     47 H13        -5.6924   -6.6433    2.5805 H         1 <0>         0.0690
     48 H14        -5.5853   -9.1118    2.3720 H         1 <0>         0.0667
     49 H15        -5.4876   -9.2573    4.1433 H         1 <0>         0.0697
     50 H16        -7.6933   -8.1446    4.3563 H         1 <0>         0.0597
     51 H17        -7.7910   -7.9992    2.5850 H         1 <0>         0.0623
     52 H18       -11.0698   -9.2630    3.5083 H         1 <0>         0.3409
     53 H19        -8.8660  -14.5254    3.2931 H         1 <0>         0.4198
     54 H20       -10.4087  -13.9485    3.6247 H         1 <0>         0.4044
     55 H21        -8.0503  -14.1495    5.6036 H         1 <0>         0.1283
     56 H22        -6.5571  -16.0572    6.0283 H         1 <0>         0.1330
     57 H23        -3.9836  -14.7678    2.8768 H         1 <0>         0.1342
     58 H24        -5.4705  -12.8604    2.4290 H         1 <0>         0.1317
     59 H25         1.9726   -5.3570    3.2620 H         1 <0>         0.4305
     60 H26         0.6494   -6.3689    3.0433 H         1 <0>         0.4234
     61 H27         2.7697   -3.3577    1.0050 H         1 <0>         0.4228
     62 H28         1.6646   -4.5127    1.5219 H         1 <0>         0.4234
     63 H29        -1.7272   -3.8314    3.4870 H         1 <0>         0.4431
     64 H30        -7.3542  -10.7133    3.2324 H         1 <0>         0.4251
     65 H31       -10.7778  -11.5744    3.3877 H         1 <0>         0.4243
@<TRIPOS>BOND
     1    1    6 ar
     2    1    2 ar
     3    1   35 1
     4    2    3 ar
     5    2   36 1
     6    3    4 ar
     7    3   34 1
     8    4    5 ar
     9    4   37 1
    10    5    6 ar
    11    5   38 1
    12    6    7 1
    13    7    8 1
    14    7   39 1
    15    8    9 2
    16    8   33 1
    17    9   10 1
    18   10   11 2
    19   10   32 1
    20   11   12 1
    21   11   63 1
    22   12   13 1
    23   12   40 1
    24   12   41 1
    25   13   14 1
    26   13   42 1
    27   13   43 1
    28   14   15 1
    29   14   44 1
    30   14   45 1
    31   15   16 1
    32   15   46 1
    33   15   47 1
    34   16   17 1
    35   16   48 1
    36   16   49 1
    37   17   18 1
    38   17   50 1
    39   17   51 1
    40   18   19 1
    41   18   64 1
    42   19   20 2
    43   19   21 1
    44   20   52 1
    45   21   22 1
    46   21   65 1
    47   22   23 1
    48   22   24 2
    49   23   53 1
    50   23   54 1
    51   24   25 1
    52   25   30 ar
    53   25   26 ar
    54   26   27 ar
    55   26   55 1
    56   27   28 ar
    57   27   56 1
    58   28   29 ar
    59   28   31 1
    60   29   30 ar
    61   29   57 1
    62   30   58 1
    63   32   59 1
    64   32   60 1
    65   33   61 1
    66   33   62 1
@<TRIPOS>MOLECULE
ZINC18098320
   64    65     0     0     0
SMALL
USER_CHARGES

@<TRIPOS>ATOM
      1 C1          0.8629    0.6056    0.4827 C.ar      1 <0>        -0.1209
      2 C2          2.1440    0.8365    0.9395 C.ar      1 <0>        -0.0872
      3 C3          2.6933    0.0183    1.9120 C.ar      1 <0>        -0.0580
      4 C4          1.9616   -1.0356    2.4324 C.ar      1 <0>        -0.0854
      5 C5          0.6793   -1.2765    1.9842 C.ar      1 <0>        -0.1557
      6 C6          0.1200   -0.4554    1.0035 C.ar      1 <0>         0.1349
      7 N1         -1.1532   -0.6896    0.5542 N.2       1 <0>        -0.5898
      8 C7         -1.4359   -1.8146   -0.0586 C.2       1 <0>         0.6519
      9 N2         -0.4295   -2.7024   -0.3671 N.pl3     1 <0>        -0.6693
     10 C8         -0.7380   -3.9367   -0.9000 C.2       1 <0>         0.5971
     11 N3          0.2139   -4.7250   -1.3111 N.2       1 <0>        -0.5944
     12 C9         -0.1167   -5.9879   -1.9760 C.3       1 <0>         0.0664
     13 C10         0.3338   -5.9281   -3.4370 C.3       1 <0>        -0.1130
     14 C11        -0.0115   -7.2470   -4.1315 C.3       1 <0>        -0.1165
     15 C12         0.4391   -7.1873   -5.5924 C.3       1 <0>        -0.1140
     16 C13         0.0938   -8.5061   -6.2869 C.3       1 <0>        -0.1288
     17 C14         0.5443   -8.4464   -7.7479 C.3       1 <0>         0.1404
     18 N4          0.2137   -9.7092   -8.4129 N.pl3     1 <0>        -0.7036
     19 C15         0.5254   -9.8896   -9.7396 C.2       1 <0>         0.6392
     20 N5          1.1829   -8.9689  -10.3851 N.2       1 <0>        -0.8029
     21 N6          0.1419  -11.0455  -10.3871 N.pl3     1 <0>        -0.6772
     22 C16        -0.6433  -11.9711   -9.7366 C.2       1 <0>         0.6544
     23 N7         -1.0720  -11.7287   -8.5207 N.2       1 <0>        -0.6184
     24 C17        -1.8531  -12.6498   -7.8733 C.ar      1 <0>         0.1418
     25 C18        -3.0415  -13.0940   -8.4557 C.ar      1 <0>        -0.1513
     26 C19        -3.8237  -14.0214   -7.7990 C.ar      1 <0>        -0.0901
     27 C20        -3.4321  -14.5115   -6.5647 C.ar      1 <0>        -0.0555
     28 C21        -2.2546  -14.0749   -5.9818 C.ar      1 <0>        -0.0893
     29 C22        -1.4609  -13.1521   -6.6313 C.ar      1 <0>        -0.1167
     30 Cl1        -4.4221  -15.6779   -5.7442 Cl        1 <0>        -0.0718
     31 N8         -0.9773  -13.1471  -10.3603 N.pl3     1 <0>        -0.8783
     32 N9         -2.0502   -4.3349   -0.9973 N.pl3     1 <0>        -0.9140
     33 N10        -2.7347   -2.1066   -0.3923 N.pl3     1 <0>        -0.8468
     34 Cl2         4.3065    0.3147    2.4808 Cl        1 <0>        -0.0730
     35 H1          0.4340    1.2470   -0.2729 H         1 <0>         0.1336
     36 H2          2.7197    1.6570    0.5374 H         1 <0>         0.1350
     37 H3          2.3956   -1.6705    3.1906 H         1 <0>         0.1328
     38 H4          0.1096   -2.0991    2.3906 H         1 <0>         0.1264
     39 H5          0.3935   -6.8085   -1.4717 H         1 <0>         0.0772
     40 H6         -1.1939   -6.1493   -1.9343 H         1 <0>         0.0454
     41 H7         -0.1764   -5.1075   -3.9413 H         1 <0>         0.0568
     42 H8          1.4110   -5.7667   -3.4787 H         1 <0>         0.0706
     43 H9          0.4988   -8.0676   -3.6272 H         1 <0>         0.0639
     44 H10        -1.0886   -7.4085   -4.0897 H         1 <0>         0.0607
     45 H11        -0.0712   -6.3666   -6.0967 H         1 <0>         0.0640
     46 H12         1.5162   -7.0258   -5.6342 H         1 <0>         0.0663
     47 H13         0.6040   -9.3268   -5.7826 H         1 <0>         0.0656
     48 H14        -0.9834   -8.6676   -6.2452 H         1 <0>         0.0665
     49 H15         0.0341   -7.6258   -8.2522 H         1 <0>         0.0593
     50 H16         1.6215   -8.2849   -7.7896 H         1 <0>         0.0619
     51 H17        -0.2252  -10.4181   -7.9170 H         1 <0>         0.4257
     52 H18         1.3394   -9.0626  -11.3378 H         1 <0>         0.3382
     53 H19         0.4252  -11.2065  -11.3008 H         1 <0>         0.4230
     54 H20        -3.3481  -12.7121   -9.4183 H         1 <0>         0.1285
     55 H21        -4.7434  -14.3655   -8.2484 H         1 <0>         0.1322
     56 H22        -1.9547  -14.4607   -5.0187 H         1 <0>         0.1353
     57 H23        -0.5402  -12.8159   -6.1778 H         1 <0>         0.1339
     58 H24        -1.2181  -13.9246   -9.8327 H         1 <0>         0.4184
     59 H25        -0.9725  -13.2008  -11.3288 H         1 <0>         0.4038
     60 H26        -2.4047   -4.6330   -1.8495 H         1 <0>         0.4065
     61 H27        -2.6216   -4.3176   -0.2136 H         1 <0>         0.4044
     62 H28        -3.4574   -1.8512    0.2022 H         1 <0>         0.4159
     63 H29        -2.9301   -2.5683   -1.2227 H         1 <0>         0.4129
     64 H30         0.4964   -2.4598   -0.2097 H         1 <0>         0.4312
@<TRIPOS>BOND
     1    1    6 ar
     2    1    2 ar
     3    1   35 1
     4    2    3 ar
     5    2   36 1
     6    3    4 ar
     7    3   34 1
     8    4    5 ar
     9    4   37 1
    10    5    6 ar
    11    5   38 1
    12    6    7 1
    13    7    8 2
    14    8    9 1
    15    8   33 1
    16    9   10 1
    17    9   64 1
    18   10   11 2
    19   10   32 1
    20   11   12 1
    21   12   13 1
    22   12   39 1
    23   12   40 1
    24   13   14 1
    25   13   41 1
    26   13   42 1
    27   14   15 1
    28   14   43 1
    29   14   44 1
    30   15   16 1
    31   15   45 1
    32   15   46 1
    33   16   17 1
    34   16   47 1
    35   16   48 1
    36   17   18 1
    37   17   49 1
    38   17   50 1
    39   18   19 1
    40   18   51 1
    41   19   20 2
    42   19   21 1
    43   20   52 1
    44   21   22 1
    45   21   53 1
    46   22   23 2
    47   22   31 1
    48   23   24 1
    49   24   29 ar
    50   24   25 ar
    51   25   26 ar
    52   25   54 1
    53   26   27 ar
    54   26   55 1
    55   27   28 ar
    56   27   30 1
    57   28   29 ar
    58   28   56 1
    59   29   57 1
    60   31   58 1
    61   31   59 1
    62   32   60 1
    63   32   61 1
    64   33   62 1
    65   33   63 1
@<TRIPOS>MOLECULE
ZINC18098320
   64    65     0     0     0
SMALL
USER_CHARGES

@<TRIPOS>ATOM
      1 C1         -5.4651   -3.9503   -4.5880 C.ar      1 <0>        -0.1055
      2 C2         -6.3745   -4.2609   -5.5800 C.ar      1 <0>        -0.0918
      3 C3         -5.9461   -4.4301   -6.8849 C.ar      1 <0>        -0.0600
      4 C4         -4.6060   -4.2886   -7.1997 C.ar      1 <0>        -0.0904
      5 C5         -3.6924   -3.9777   -6.2117 C.ar      1 <0>        -0.1487
      6 C6         -4.1197   -3.8074   -4.9013 C.ar      1 <0>         0.1730
      7 N1         -3.1964   -3.4924   -3.8986 N.pl3     1 <0>        -0.6979
      8 C7         -3.3629   -3.9966   -2.6231 C.2       1 <0>         0.6175
      9 N2         -4.3601   -4.8674   -2.3672 N.2       1 <0>        -0.6500
     10 C8         -4.0916   -6.0325   -1.8089 C.2       1 <0>         0.7025
     11 N3         -2.8070   -6.3432   -1.4598 N.pl3     1 <0>        -0.7391
     12 C9         -2.4931   -7.6724   -0.9299 C.3       1 <0>         0.1039
     13 C10        -0.9970   -7.7581   -0.6213 C.3       1 <0>        -0.1295
     14 C11        -0.6692   -9.1463   -0.0678 C.3       1 <0>        -0.1147
     15 C12         0.8269   -9.2320    0.2408 C.3       1 <0>        -0.1151
     16 C13         1.1548  -10.6202    0.7942 C.3       1 <0>        -0.1295
     17 C14         2.6509  -10.7059    1.1029 C.3       1 <0>         0.1414
     18 N4          2.9648  -12.0352    1.6328 N.pl3     1 <0>        -0.7024
     19 C15         4.2567  -12.3477    1.9839 C.2       1 <0>         0.6409
     20 N5          5.1778  -11.4270    1.9639 N.2       1 <0>        -0.8017
     21 N6          4.5774  -13.6362    2.3573 N.pl3     1 <0>        -0.6783
     22 C16         3.6376  -14.6373    2.2535 C.2       1 <0>         0.6528
     23 N7          3.9120  -15.8897    2.7431 N.pl3     1 <0>        -0.8749
     24 N8          2.4799  -14.3939    1.6864 N.2       1 <0>        -0.6197
     25 C17         1.5805  -15.4110    1.5010 C.ar      1 <0>         0.1455
     26 C18         1.9770  -16.5906    0.8685 C.ar      1 <0>        -0.1583
     27 C19         1.0668  -17.6109    0.6848 C.ar      1 <0>        -0.0879
     28 C20        -0.2377  -17.4665    1.1258 C.ar      1 <0>        -0.0580
     29 C21        -0.6370  -16.2990    1.7538 C.ar      1 <0>        -0.0877
     30 C22         0.2654  -15.2740    1.9490 C.ar      1 <0>        -0.1183
     31 Cl1        -1.3774  -18.7545    0.8898 Cl        1 <0>        -0.0720
     32 N9         -5.0979   -6.9286   -1.5797 N.pl3     1 <0>        -0.8281
     33 N10        -2.5519   -3.6286   -1.6622 N.2       1 <0>        -0.8150
     34 Cl2        -7.0918   -4.8209   -8.1292 Cl        1 <0>        -0.0773
     35 H1         -5.8006   -3.8144   -3.5705 H         1 <0>         0.1538
     36 H2         -7.4209   -4.3722   -5.3369 H         1 <0>         0.1330
     37 H3         -4.2742   -4.4219   -8.2188 H         1 <0>         0.1322
     38 H4         -2.6466   -3.8674   -6.4579 H         1 <0>         0.1280
     39 H5         -3.0629   -7.8433   -0.0165 H         1 <0>         0.0672
     40 H6         -2.7556   -8.4294   -1.6689 H         1 <0>         0.0653
     41 H7         -0.4272   -7.5872   -1.5346 H         1 <0>         0.0694
     42 H8         -0.7345   -7.0011    0.1177 H         1 <0>         0.0741
     43 H9         -1.2390   -9.3172    0.8455 H         1 <0>         0.0669
     44 H10        -0.9317   -9.9034   -0.8068 H         1 <0>         0.0660
     45 H11         1.3967   -9.0611   -0.6726 H         1 <0>         0.0659
     46 H12         1.0894   -8.4750    0.9798 H         1 <0>         0.0671
     47 H13         0.5850  -10.7911    1.7076 H         1 <0>         0.0660
     48 H14         0.8923  -11.3773    0.0553 H         1 <0>         0.0684
     49 H15         3.2207  -10.5351    0.1895 H         1 <0>         0.0595
     50 H16         2.9134   -9.9489    1.8418 H         1 <0>         0.0628
     51 H17         6.1022  -11.6619    2.1406 H         1 <0>         0.3388
     52 H18         3.1887  -16.5131    2.9135 H         1 <0>         0.4193
     53 H19         4.8294  -16.1515    2.9188 H         1 <0>         0.4030
     54 H20         2.9941  -16.7041    0.5235 H         1 <0>         0.1282
     55 H21         1.3724  -18.5240    0.1956 H         1 <0>         0.1320
     56 H22        -1.6559  -16.1923    2.0956 H         1 <0>         0.1351
     57 H23        -0.0460  -14.3656    2.4433 H         1 <0>         0.1336
     58 H24        -6.0094   -6.7081   -1.8275 H         1 <0>         0.4227
     59 H25        -4.9005   -7.7851   -1.1694 H         1 <0>         0.4103
     60 H26        -1.7916   -3.0599   -1.8605 H         1 <0>         0.3277
     61 H27        -2.1034   -5.6835   -1.5629 H         1 <0>         0.4236
     62 H28         2.2611  -12.6948    1.7359 H         1 <0>         0.4248
     63 H29         5.4650  -13.8372    2.6931 H         1 <0>         0.4229
     64 H30        -2.4393   -2.9200   -4.0988 H         1 <0>         0.4070
@<TRIPOS>BOND
     1    1    6 ar
     2    1    2 ar
     3    1   35 1
     4    2    3 ar
     5    2   36 1
     6    3    4 ar
     7    3   34 1
     8    4    5 ar
     9    4   37 1
    10    5    6 ar
    11    5   38 1
    12    6    7 1
    13    7    8 1
    14    7   64 1
    15    8    9 1
    16    8   33 2
    17    9   10 2
    18   10   11 1
    19   10   32 1
    20   11   12 1
    21   11   61 1
    22   12   13 1
    23   12   39 1
    24   12   40 1
    25   13   14 1
    26   13   41 1
    27   13   42 1
    28   14   15 1
    29   14   43 1
    30   14   44 1
    31   15   16 1
    32   15   45 1
    33   15   46 1
    34   16   17 1
    35   16   47 1
    36   16   48 1
    37   17   18 1
    38   17   49 1
    39   17   50 1
    40   18   19 1
    41   18   62 1
    42   19   20 2
    43   19   21 1
    44   20   51 1
    45   21   22 1
    46   21   63 1
    47   22   23 1
    48   22   24 2
    49   23   52 1
    50   23   53 1
    51   24   25 1
    52   25   30 ar
    53   25   26 ar
    54   26   27 ar
    55   26   54 1
    56   27   28 ar
    57   27   55 1
    58   28   29 ar
    59   28   31 1
    60   29   30 ar
    61   29   56 1
    62   30   57 1
    63   32   58 1
    64   32   59 1
    65   33   60 1
@<TRIPOS>MOLECULE
ZINC18098320
   64    65     0     0     0
SMALL
USER_CHARGES

@<TRIPOS>ATOM
      1 C1         -0.2723   -0.9460    0.2184 C.ar      1 <0>        -0.1382
      2 C2          0.4643   -1.8494    0.9559 C.ar      1 <0>        -0.0892
      3 C3          0.5936   -3.1585    0.5237 C.ar      1 <0>        -0.0698
      4 C4         -0.0146   -3.5699   -0.6503 C.ar      1 <0>        -0.0893
      5 C5         -0.7537   -2.6765   -1.3974 C.ar      1 <0>        -0.1404
      6 C6         -0.8886   -1.3544   -0.9669 C.ar      1 <0>         0.1720
      7 N1         -1.6208   -0.4637   -1.7026 N.2       1 <0>        -0.6507
      8 C7         -1.3360   -0.2685   -2.9763 C.2       1 <0>         0.6389
      9 N2         -0.2338   -0.8234   -3.5118 N.2       1 <0>        -0.6971
     10 C8          0.9610   -0.3631   -3.1883 C.2       1 <0>         0.7004
     11 N3          1.0883    0.5731   -2.2009 N.pl3     1 <0>        -0.7463
     12 C9          2.4031    1.1435   -1.8973 C.3       1 <0>         0.1062
     13 C10         2.2849    2.0885   -0.6999 C.3       1 <0>        -0.1301
     14 C11         3.6302    2.7760   -0.4580 C.3       1 <0>        -0.1142
     15 C12         3.5467    3.6285    0.8097 C.3       1 <0>        -0.1148
     16 C13         4.8508    4.4090    0.9863 C.3       1 <0>        -0.1295
     17 C14         4.7672    5.2614    2.2540 C.3       1 <0>         0.1418
     18 N4          6.0159    6.0088    2.4231 N.pl3     1 <0>        -0.7034
     19 C15         6.1741    6.8483    3.5002 C.2       1 <0>         0.6414
     20 N5          5.1839    7.0455    4.3231 N.2       1 <0>        -0.8014
     21 N6          7.3814    7.4818    3.7094 N.pl3     1 <0>        -0.6782
     22 C16         8.4632    7.1827    2.9116 C.2       1 <0>         0.6539
     23 N7          9.6070    7.9366    2.9955 N.pl3     1 <0>        -0.8744
     24 N8          8.4006    6.1771    2.0715 N.2       1 <0>        -0.6206
     25 C17         9.4255    5.9567    1.1890 C.ar      1 <0>         0.1427
     26 C18         9.8498    6.9789    0.3383 C.ar      1 <0>        -0.1570
     27 C19        10.8822    6.7509   -0.5479 C.ar      1 <0>        -0.0886
     28 C20        11.4967    5.5111   -0.5951 C.ar      1 <0>        -0.0574
     29 C21        11.0804    4.4932    0.2461 C.ar      1 <0>        -0.0888
     30 C22        10.0533    4.7108    1.1410 C.ar      1 <0>        -0.1157
     31 Cl1        12.7944    5.2315   -1.7139 Cl        1 <0>        -0.0723
     32 N9          2.0701   -0.8229   -3.8409 N.pl3     1 <0>        -0.8264
     33 N10        -2.1681    0.5043   -3.7582 N.pl3     1 <0>        -0.8321
     34 Cl2         1.5230   -4.2890    1.4575 Cl        1 <0>        -0.0839
     35 H1         -0.3761    0.0736    0.5589 H         1 <0>         0.1235
     36 H2          0.9415   -1.5349    1.8722 H         1 <0>         0.1273
     37 H3          0.0901   -4.5924   -0.9818 H         1 <0>         0.1251
     38 H4         -1.2270   -2.9984   -2.3133 H         1 <0>         0.1248
     39 H5          3.1012    0.3409   -1.6593 H         1 <0>         0.0692
     40 H6          2.7675    1.6972   -2.7626 H         1 <0>         0.0675
     41 H7          1.5238    2.8413   -0.9048 H         1 <0>         0.0706
     42 H8          2.0035    1.5191    0.1860 H         1 <0>         0.0746
     43 H9          4.4075    2.0213   -0.3379 H         1 <0>         0.0671
     44 H10         3.8708    3.4131   -1.3091 H         1 <0>         0.0657
     45 H11         2.7141    4.3267    0.7238 H         1 <0>         0.0663
     46 H12         3.3907    2.9815    1.6730 H         1 <0>         0.0676
     47 H13         5.6833    3.7107    1.0722 H         1 <0>         0.0687
     48 H14         5.0067    5.0559    0.1230 H         1 <0>         0.0649
     49 H15         3.9347    5.9597    2.1681 H         1 <0>         0.0618
     50 H16         4.6113    4.6145    3.1173 H         1 <0>         0.0612
     51 H17         5.2709    7.6927    5.0404 H         1 <0>         0.3391
     52 H18        10.4388    7.5984    2.6285 H         1 <0>         0.4188
     53 H19         9.5836    8.8075    3.4219 H         1 <0>         0.4036
     54 H20         9.3707    7.9462    0.3737 H         1 <0>         0.1275
     55 H21        11.2114    7.5409   -1.2066 H         1 <0>         0.1319
     56 H22        11.5637    3.5283    0.2047 H         1 <0>         0.1347
     57 H23         9.7327    3.9175    1.8001 H         1 <0>         0.1341
     58 H24         1.9798   -1.4874   -4.5418 H         1 <0>         0.4235
     59 H25         2.9477   -0.4848   -3.6033 H         1 <0>         0.4104
     60 H26        -2.9629    0.9044   -3.3720 H         1 <0>         0.4096
     61 H27        -1.9588    0.6478   -4.6944 H         1 <0>         0.4077
     62 H28         0.3080    0.8599   -1.7010 H         1 <0>         0.4188
     63 H29         6.7310    5.9113    1.7751 H         1 <0>         0.4237
     64 H30         7.4683    8.1380    4.4184 H         1 <0>         0.4231
@<TRIPOS>BOND
     1    1    6 ar
     2    1    2 ar
     3    1   35 1
     4    2    3 ar
     5    2   36 1
     6    3    4 ar
     7    3   34 1
     8    4    5 ar
     9    4   37 1
    10    5    6 ar
    11    5   38 1
    12    6    7 1
    13    7    8 2
    14    8    9 1
    15    8   33 1
    16    9   10 2
    17   10   11 1
    18   10   32 1
    19   11   12 1
    20   11   62 1
    21   12   13 1
    22   12   39 1
    23   12   40 1
    24   13   14 1
    25   13   41 1
    26   13   42 1
    27   14   15 1
    28   14   43 1
    29   14   44 1
    30   15   16 1
    31   15   45 1
    32   15   46 1
    33   16   17 1
    34   16   47 1
    35   16   48 1
    36   17   18 1
    37   17   49 1
    38   17   50 1
    39   18   19 1
    40   18   63 1
    41   19   20 2
    42   19   21 1
    43   20   51 1
    44   21   22 1
    45   21   64 1
    46   22   23 1
    47   22   24 2
    48   23   52 1
    49   23   53 1
    50   24   25 1
    51   25   30 ar
    52   25   26 ar
    53   26   27 ar
    54   26   54 1
    55   27   28 ar
    56   27   55 1
    57   28   29 ar
    58   28   31 1
    59   29   30 ar
    60   29   56 1
    61   30   57 1
    62   32   58 1
    63   32   59 1
    64   33   60 1
    65   33   61 1
@<TRIPOS>MOLECULE
ZINC18098320
   64    65     0     0     0
SMALL
USER_CHARGES

@<TRIPOS>ATOM
      1 C1          1.7920    3.7874   -2.8375 C.ar      1 <0>        -0.1253
      2 C2          3.1871    3.7737   -2.7890 C.ar      1 <0>         0.1469
      3 C3          3.8563    2.5977   -2.4460 C.ar      1 <0>        -0.1624
      4 C4          3.1363    1.4569   -2.1572 C.ar      1 <0>        -0.0853
      5 C5          1.7528    1.4768   -2.2070 C.ar      1 <0>        -0.0597
      6 C6          1.0833    2.6402   -2.5466 C.ar      1 <0>        -0.0863
      7 Cl1         0.8539    0.0372   -1.8423 Cl        1 <0>        -0.0717
      8 N1          3.8966    4.9100   -3.0773 N.2       1 <0>        -0.6072
      9 C7          4.5472    5.5363   -2.1257 C.2       1 <0>         0.6464
     10 N2          4.4096    5.1322   -0.8165 N.pl3     1 <0>        -0.7218
     11 C8          4.6743    6.0154    0.2094 C.2       1 <0>         0.6034
     12 N3          4.9839    5.5661    1.3921 N.2       1 <0>        -0.6144
     13 C9          5.1922    4.1308    1.5989 C.3       1 <0>         0.0676
     14 C10         6.6534    3.8765    1.9746 C.3       1 <0>        -0.1109
     15 C11         6.8710    2.3775    2.1906 C.3       1 <0>        -0.1186
     16 C12         8.3322    2.1232    2.5663 C.3       1 <0>        -0.1133
     17 C13         8.5498    0.6242    2.7823 C.3       1 <0>        -0.1350
     18 C14        10.0110    0.3699    3.1580 C.3       1 <0>         0.1466
     19 N4         10.2193   -1.0654    3.3649 N.pl3     1 <0>        -0.7189
     20 C15        11.4632   -1.5363    3.7126 C.2       1 <0>         0.6223
     21 N5         11.6593   -2.8877    3.9073 N.pl3     1 <0>        -0.7218
     22 C16        12.7170   -3.3268    4.6721 C.2       1 <0>         0.6583
     23 N6         12.9834   -4.6090    4.7486 N.2       1 <0>        -0.5998
     24 C17        12.1259   -5.5214    4.1918 C.ar      1 <0>         0.1443
     25 C18        10.7944   -5.5763    4.6077 C.ar      1 <0>        -0.1677
     26 C19         9.9359   -6.4967    4.0431 C.ar      1 <0>        -0.0852
     27 C20        10.3923   -7.3649    3.0659 C.ar      1 <0>        -0.0597
     28 C21        11.7118   -7.3156    2.6495 C.ar      1 <0>        -0.0857
     29 C22        12.5787   -6.3958    3.2024 C.ar      1 <0>        -0.1200
     30 Cl2         9.3058   -8.5203    2.3601 Cl        1 <0>        -0.0715
     31 N7         13.4924   -2.4229    5.3542 N.pl3     1 <0>        -0.8462
     32 N8         12.4565   -0.7064    3.8581 N.2       1 <0>        -0.8028
     33 N9          4.6113    7.3700   -0.0164 N.pl3     1 <0>        -0.8482
     34 N10         5.3649    6.5943   -2.4350 N.pl3     1 <0>        -0.8342
     35 H1          1.2685    4.6955   -3.0979 H         1 <0>         0.1322
     36 H2          4.9355    2.5808   -2.4071 H         1 <0>         0.1273
     37 H3          3.6530    0.5463   -1.8921 H         1 <0>         0.1334
     38 H4          0.0040    2.6496   -2.5834 H         1 <0>         0.1347
     39 H5          4.5443    3.7817    2.4029 H         1 <0>         0.0785
     40 H6          4.9542    3.5931    0.6811 H         1 <0>         0.0290
     41 H7          7.3013    4.2255    1.1706 H         1 <0>         0.0573
     42 H8          6.8914    4.4141    2.8924 H         1 <0>         0.0721
     43 H9          6.2231    2.0284    2.9946 H         1 <0>         0.0650
     44 H10         6.6330    1.8398    1.2728 H         1 <0>         0.0604
     45 H11         8.9801    2.4722    1.7623 H         1 <0>         0.0654
     46 H12         8.5702    2.6608    3.4841 H         1 <0>         0.0680
     47 H13         7.9019    0.2752    3.5863 H         1 <0>         0.0692
     48 H14         8.3118    0.0866    1.8645 H         1 <0>         0.0681
     49 H15        10.6589    0.7190    2.3540 H         1 <0>         0.0683
     50 H16        10.2490    0.9076    4.0758 H         1 <0>         0.0693
     51 H17        10.4373   -4.8999    5.3702 H         1 <0>         0.1271
     52 H18         8.9056   -6.5405    4.3642 H         1 <0>         0.1337
     53 H19        12.0621   -7.9957    1.8871 H         1 <0>         0.1356
     54 H20        13.6066   -6.3551    2.8733 H         1 <0>         0.1344
     55 H21        13.1284   -1.5570    5.5965 H         1 <0>         0.4183
     56 H22        14.4045   -2.6499    5.5941 H         1 <0>         0.4229
     57 H23        13.3206   -1.0316    4.1556 H         1 <0>         0.3548
     58 H24         4.1285    7.7116   -0.7853 H         1 <0>         0.4071
     59 H25         5.0496    7.9842    0.5931 H         1 <0>         0.4209
     60 H26         5.3638    6.9619   -3.3326 H         1 <0>         0.4227
     61 H27         5.9439    6.9744   -1.7559 H         1 <0>         0.4135
     62 H28         9.4796   -1.6834    3.2565 H         1 <0>         0.4039
     63 H29        11.0523   -3.5288    3.5055 H         1 <0>         0.4156
     64 H30         4.1266    4.2263   -0.6157 H         1 <0>         0.4292
@<TRIPOS>BOND
     1    1    6 ar
     2    1    2 ar
     3    1   35 1
     4    2    3 ar
     5    2    8 1
     6    3    4 ar
     7    3   36 1
     8    4    5 ar
     9    4   37 1
    10    5    6 ar
    11    5    7 1
    12    6   38 1
    13    8    9 2
    14    9   10 1
    15    9   34 1
    16   10   11 1
    17   10   64 1
    18   11   12 2
    19   11   33 1
    20   12   13 1
    21   13   14 1
    22   13   39 1
    23   13   40 1
    24   14   15 1
    25   14   41 1
    26   14   42 1
    27   15   16 1
    28   15   43 1
    29   15   44 1
    30   16   17 1
    31   16   45 1
    32   16   46 1
    33   17   18 1
    34   17   47 1
    35   17   48 1
    36   18   19 1
    37   18   49 1
    38   18   50 1
    39   19   20 1
    40   19   62 1
    41   20   21 1
    42   20   32 2
    43   21   22 1
    44   21   63 1
    45   22   23 2
    46   22   31 1
    47   23   24 1
    48   24   29 ar
    49   24   25 ar
    50   25   26 ar
    51   25   51 1
    52   26   27 ar
    53   26   52 1
    54   27   28 ar
    55   27   30 1
    56   28   29 ar
    57   28   53 1
    58   29   54 1
    59   31   55 1
    60   31   56 1
    61   32   57 1
    62   33   58 1
    63   33   59 1
    64   34   60 1
    65   34   61 1
@<TRIPOS>MOLECULE
ZINC18098320
   64    65     0     0     0
SMALL
NO_CHARGES

@<TRIPOS>ATOM
      1 C1          5.4346   -2.5886    5.3418 C.ar      1 <0>        -0.1488
      2 C2          5.6872   -1.8022    6.4583 C.ar      1 <0>         0.1814
      3 C3          6.3600   -2.3419    7.5468 C.ar      1 <0>        -0.1006
      4 C4          6.7761   -3.6584    7.5164 C.ar      1 <0>        -0.0921
      5 C5          6.5235   -4.4396    6.4024 C.ar      1 <0>        -0.0597
      6 C6          5.8529   -3.9046    5.3166 C.ar      1 <0>        -0.0905
      7 Cl1         7.0485   -6.0940    6.3672 Cl        1 <0>        -0.0780
      8 N1          5.2650   -0.4688    6.4863 N.pl3     1 <0>        -0.6542
      9 C7          6.0116    0.4782    7.1605 C.2       1 <0>         0.6015
     10 N2          5.5677    1.7483    7.2498 N.2       1 <0>        -0.6929
     11 C8          6.2617    2.7296    6.7052 C.2       1 <0>         0.6861
     12 N3          7.3660    2.4487    5.9503 N.pl3     1 <0>        -0.7522
     13 C9          8.2026    3.5387    5.4422 C.3       1 <0>         0.1068
     14 C10         9.3639    2.9562    4.6342 C.3       1 <0>        -0.1314
     15 C11        10.2376    4.0946    4.1035 C.3       1 <0>        -0.1145
     16 C12        11.3990    3.5121    3.2955 C.3       1 <0>        -0.1156
     17 C13        12.2727    4.6505    2.7649 C.3       1 <0>        -0.1346
     18 C14        13.4340    4.0680    1.9569 C.3       1 <0>         0.1460
     19 N4         14.2706    5.1581    1.4488 N.pl3     1 <0>        -0.7188
     20 C15        15.3812    4.8755    0.6895 C.2       1 <0>         0.6268
     21 N5         16.1689    5.9019    0.2111 N.pl3     1 <0>        -0.7200
     22 C16        17.0223    5.6793   -0.8464 C.2       1 <0>         0.6590
     23 N6         17.8561    6.6186   -1.2254 N.2       1 <0>        -0.6027
     24 C17        17.7904    7.8634   -0.6564 C.ar      1 <0>         0.1415
     25 C18        16.6819    8.6807   -0.8845 C.ar      1 <0>        -0.1573
     26 C19        16.6214    9.9327   -0.3084 C.ar      1 <0>        -0.0875
     27 C20        17.6572   10.3792    0.4946 C.ar      1 <0>        -0.0584
     28 C21        18.7595    9.5734    0.7243 C.ar      1 <0>        -0.0873
     29 C22        18.8291    8.3172    0.1585 C.ar      1 <0>        -0.1233
     30 Cl2        17.5737   11.9560    1.2160 Cl        1 <0>        -0.0716
     31 N7         17.0007    4.4748   -1.5040 N.pl3     1 <0>        -0.8461
     32 N8         15.6898    3.6387    0.4219 N.2       1 <0>        -0.8072
     33 N9          5.8762    4.0271    6.8961 N.pl3     1 <0>        -0.8282
     34 N10         7.1510    0.1422    7.7130 N.2       1 <0>        -0.8038
     35 H1          4.9076   -2.1727    4.4958 H         1 <0>         0.1291
     36 H2          6.5580   -1.7324    8.4162 H         1 <0>         0.1531
     37 H3          7.2994   -4.0786    8.3626 H         1 <0>         0.1320
     38 H4          5.6564   -4.5166    4.4487 H         1 <0>         0.1328
     39 H5          7.6045    4.1879    4.8026 H         1 <0>         0.0674
     40 H6          8.5957    4.1156    6.2793 H         1 <0>         0.0692
     41 H7          9.9619    2.3071    5.2738 H         1 <0>         0.0740
     42 H8          8.9708    2.3794    3.7970 H         1 <0>         0.0721
     43 H9          9.6396    4.7438    3.4640 H         1 <0>         0.0668
     44 H10        10.6307    4.6715    4.9407 H         1 <0>         0.0673
     45 H11        11.9970    2.8630    3.9351 H         1 <0>         0.0690
     46 H12        11.0059    2.9353    2.4584 H         1 <0>         0.0684
     47 H13        11.6746    5.2997    2.1253 H         1 <0>         0.0691
     48 H14        12.6657    5.2274    3.6020 H         1 <0>         0.0695
     49 H15        14.0320    3.4189    2.5965 H         1 <0>         0.0696
     50 H16        13.0409    3.4912    1.1198 H         1 <0>         0.0694
     51 H17        15.8735    8.3337   -1.5110 H         1 <0>         0.1275
     52 H18        15.7646   10.5661   -0.4844 H         1 <0>         0.1336
     53 H19        19.5644    9.9274    1.3513 H         1 <0>         0.1352
     54 H20        19.6872    7.6877    0.3423 H         1 <0>         0.1333
     55 H21        16.2136    3.9099   -1.4556 H         1 <0>         0.4193
     56 H22        17.7725    4.1883   -2.0170 H         1 <0>         0.4218
     57 H23        16.5206    3.4341   -0.0350 H         1 <0>         0.3561
     58 H24         5.0926    4.2264    7.4318 H         1 <0>         0.4240
     59 H25         6.3864    4.7485    6.4958 H         1 <0>         0.4099
     60 H26         7.7093    0.8205    8.1243 H         1 <0>         0.3387
     61 H27         7.5958    1.5276    5.7510 H         1 <0>         0.4177
     62 H28        14.0408    6.0791    1.6481 H         1 <0>         0.4038
     63 H29        16.1217    6.7804    0.6196 H         1 <0>         0.4145
     64 H30         4.4480   -0.2091    6.0324 H         1 <0>         0.4141
@<TRIPOS>BOND
     1    1    6 ar
     2    1    2 ar
     3    1   35 1
     4    2    3 ar
     5    2    8 1
     6    3    4 ar
     7    3   36 1
     8    4    5 ar
     9    4   37 1
    10    5    6 ar
    11    5    7 1
    12    6   38 1
    13    8    9 1
    14    8   64 1
    15    9   10 1
    16    9   34 2
    17   10   11 2
    18   11   12 1
    19   11   33 1
    20   12   13 1
    21   12   61 1
    22   13   14 1
    23   13   39 1
    24   13   40 1
    25   14   15 1
    26   14   41 1
    27   14   42 1
    28   15   16 1
    29   15   43 1
    30   15   44 1
    31   16   17 1
    32   16   45 1
    33   16   46 1
    34   17   18 1
    35   17   47 1
    36   17   48 1
    37   18   19 1
    38   18   49 1
    39   18   50 1
    40   19   20 1
    41   19   62 1
    42   20   21 1
    43   20   32 2
    44   21   22 1
    45   21   63 1
    46   22   23 2
    47   22   31 1
    48   23   24 1
    49   24   29 ar
    50   24   25 ar
    51   25   26 ar
    52   25   51 1
    53   26   27 ar
    54   26   52 1
    55   27   28 ar
    56   27   30 1
    57   28   29 ar
    58   28   53 1
    59   29   54 1
    60   31   55 1
    61   31   56 1
    62   32   57 1
    63   33   58 1
    64   33   59 1
    65   34   60 1
@<TRIPOS>MOLECULE
ZINC18098320
   64    65     0     0     0
SMALL
NO_CHARGES

@<TRIPOS>ATOM
      1 C1          9.2312   -3.9598    7.7560 C.ar      1 <0>        -0.1503
      2 C2         10.1467   -3.3413    8.5974 C.ar      1 <0>         0.1735
      3 C3          9.7000   -2.6388    9.7091 C.ar      1 <0>        -0.1103
      4 C4          8.3473   -2.5571    9.9750 C.ar      1 <0>        -0.0904
      5 C5          7.4372   -3.1748    9.1352 C.ar      1 <0>        -0.0612
      6 C6          7.8796   -3.8750    8.0266 C.ar      1 <0>        -0.0892
      7 Cl1         5.7375   -3.0705    9.4727 Cl        1 <0>        -0.0770
      8 N1         11.5165   -3.4260    8.3260 N.pl3     1 <0>        -0.7021
      9 C7         12.3483   -2.3662    8.6322 C.2       1 <0>         0.6087
     10 N2         11.8261   -1.2079    9.0837 N.2       1 <0>        -0.6441
     11 C8         12.0191   -0.0902    8.4096 C.2       1 <0>         0.7017
     12 N3         12.6563   -0.1224    7.2008 N.pl3     1 <0>        -0.7394
     13 C9         12.9727    1.1280    6.5059 C.3       1 <0>         0.1069
     14 C10        13.6794    0.8131    5.1860 C.3       1 <0>        -0.1301
     15 C11        14.0099    2.1190    4.4603 C.3       1 <0>        -0.1150
     16 C12        14.7166    1.8042    3.1404 C.3       1 <0>        -0.1152
     17 C13        15.0471    3.1100    2.4147 C.3       1 <0>        -0.1348
     18 C14        15.7538    2.7952    1.0948 C.3       1 <0>         0.1465
     19 N4         16.0703    4.0455    0.3999 N.pl3     1 <0>        -0.7193
     20 C15        16.7111    4.0131   -0.8158 C.2       1 <0>         0.6268
     21 N5         17.0090    5.1904   -1.4700 N.pl3     1 <0>        -0.7187
     22 C16        17.2936    5.1764   -2.8173 C.2       1 <0>         0.6603
     23 N6         17.6757    6.2781   -3.4185 N.2       1 <0>        -0.6018
     24 C17        17.6498    7.4708   -2.7443 C.ar      1 <0>         0.1368
     25 C18        16.4686    8.2115   -2.6755 C.ar      1 <0>        -0.1375
     26 C19        16.4488    9.4113   -1.9949 C.ar      1 <0>        -0.0895
     27 C20        17.5973    9.8811   -1.3808 C.ar      1 <0>        -0.0562
     28 C21        18.7721    9.1513   -1.4459 C.ar      1 <0>        -0.0896
     29 C22        18.8032    7.9473   -2.1186 C.ar      1 <0>        -0.1341
     30 Cl2        17.5645   11.3919   -0.5263 Cl        1 <0>        -0.0713
     31 N7         17.1775    4.0100   -3.5312 N.pl3     1 <0>        -0.8486
     32 N8         17.0369    2.8707   -1.3500 N.2       1 <0>        -0.8088
     33 N9         11.5818    1.1000    8.9202 N.pl3     1 <0>        -0.8292
     34 N10        13.6444   -2.4867    8.4839 N.2       1 <0>        -0.7975
     35 H1          9.5757   -4.5030    6.8884 H         1 <0>         0.1280
     36 H2         10.4099   -2.1572   10.3652 H         1 <0>         0.1548
     37 H3          7.9994   -2.0110   10.8394 H         1 <0>         0.1329
     38 H4          7.1672   -4.3555    7.3724 H         1 <0>         0.1322
     39 H5         12.0515    1.6743    6.3036 H         1 <0>         0.0651
     40 H6         13.6258    1.7361    7.1317 H         1 <0>         0.0686
     41 H7         14.6006    0.2668    5.3884 H         1 <0>         0.0741
     42 H8         13.0263    0.2050    4.5602 H         1 <0>         0.0699
     43 H9         13.0887    2.6653    4.2580 H         1 <0>         0.0665
     44 H10        14.6630    2.7271    5.0861 H         1 <0>         0.0676
     45 H11        15.6378    1.2578    3.3427 H         1 <0>         0.0685
     46 H12        14.0635    1.1960    2.5146 H         1 <0>         0.0676
     47 H13        14.1259    3.6563    2.2123 H         1 <0>         0.0691
     48 H14        15.7002    3.7181    3.0405 H         1 <0>         0.0696
     49 H15        16.6750    2.2488    1.2971 H         1 <0>         0.0692
     50 H16        15.1007    2.1870    0.4690 H         1 <0>         0.0689
     51 H17        15.5721    7.8462   -3.1544 H         1 <0>         0.1298
     52 H18        15.5356    9.9854   -1.9412 H         1 <0>         0.1344
     53 H19        19.6649    9.5232   -0.9652 H         1 <0>         0.1344
     54 H20        19.7189    7.3766   -2.1646 H         1 <0>         0.1307
     55 H21        16.5763    3.3125   -3.2261 H         1 <0>         0.4196
     56 H22        17.6966    3.8831   -4.3407 H         1 <0>         0.4213
     57 H23        17.5719    2.8485   -2.1589 H         1 <0>         0.3565
     58 H24        11.1296    1.1229    9.7780 H         1 <0>         0.4232
     59 H25        11.7236    1.9217    8.4246 H         1 <0>         0.4097
     60 H26        14.0261   -3.3414    8.2296 H         1 <0>         0.3276
     61 H27        12.8989   -0.9731    6.8029 H         1 <0>         0.4167
     62 H28        15.8276    4.8962    0.7978 H         1 <0>         0.4036
     63 H29        17.0181    6.0280   -0.9811 H         1 <0>         0.4135
     64 H30        11.8823   -4.2289    7.9227 H         1 <0>         0.4065
@<TRIPOS>BOND
     1    1    6 ar
     2    1    2 ar
     3    1   35 1
     4    2    3 ar
     5    2    8 1
     6    3    4 ar
     7    3   36 1
     8    4    5 ar
     9    4   37 1
    10    5    6 ar
    11    5    7 1
    12    6   38 1
    13    8    9 1
    14    8   64 1
    15    9   10 1
    16    9   34 2
    17   10   11 2
    18   11   12 1
    19   11   33 1
    20   12   13 1
    21   12   61 1
    22   13   14 1
    23   13   39 1
    24   13   40 1
    25   14   15 1
    26   14   41 1
    27   14   42 1
    28   15   16 1
    29   15   43 1
    30   15   44 1
    31   16   17 1
    32   16   45 1
    33   16   46 1
    34   17   18 1
    35   17   47 1
    36   17   48 1
    37   18   19 1
    38   18   49 1
    39   18   50 1
    40   19   20 1
    41   19   62 1
    42   20   21 1
    43   20   32 2
    44   21   22 1
    45   21   63 1
    46   22   23 2
    47   22   31 1
    48   23   24 1
    49   24   29 ar
    50   24   25 ar
    51   25   26 ar
    52   25   51 1
    53   26   27 ar
    54   26   52 1
    55   27   28 ar
    56   27   30 1
    57   28   29 ar
    58   28   53 1
    59   29   54 1
    60   31   55 1
    61   31   56 1
    62   32   57 1
    63   33   58 1
    64   33   59 1
    65   34   60 1
@<TRIPOS>MOLECULE
ZINC18098320
   65    66     0     0     0
SMALL
NO_CHARGES

@<TRIPOS>ATOM
      1 C1          4.3154   -0.8210    6.1717 C.ar      1 <0>        -0.1166
      2 C2          4.7095   -1.7599    5.2272 C.ar      1 <0>         0.1406
      3 C3          3.8874   -2.0378    4.1429 C.ar      1 <0>        -0.1676
      4 C4          2.6805   -1.3802    4.0066 C.ar      1 <0>        -0.0822
      5 C5          2.2905   -0.4449    4.9489 C.ar      1 <0>        -0.0975
      6 C6          3.1076   -0.1664    6.0305 C.ar      1 <0>        -0.0893
      7 Cl1         0.7731    0.3803    4.7742 Cl        1 <0>        -0.0938
      8 N1          5.9327   -2.4241    5.3675 N.pl3     1 <0>        -0.6055
      9 C7          7.0245   -1.7582    5.8904 C.cat     1 <0>         0.3570
     10 N2          6.9106   -0.4684    6.2669 N.2       1 <0>        -0.5847
     11 C8          7.8204    0.4109    5.8928 C.2       1 <0>         0.5590
     12 N3          8.7980    0.0488    5.0086 N.pl3     1 <0>        -0.7522
     13 C9          9.7811    1.0372    4.5584 C.3       1 <0>         0.1101
     14 C10        10.7557    0.3781    3.5802 C.3       1 <0>        -0.1290
     15 C11        11.7825    1.4104    3.1100 C.3       1 <0>        -0.1157
     16 C12        12.7570    0.7513    2.1319 C.3       1 <0>        -0.1147
     17 C13        13.7838    1.7835    1.6616 C.3       1 <0>        -0.1352
     18 C14        14.7584    1.1245    0.6835 C.3       1 <0>         0.1466
     19 N4         15.7415    2.1129    0.2333 N.pl3     1 <0>        -0.7189
     20 C15        16.7247    1.7487   -0.6559 C.2       1 <0>         0.6264
     21 N5         17.6504    2.6793   -1.0799 N.pl3     1 <0>        -0.7195
     22 C16        18.3759    2.4548   -2.2285 C.2       1 <0>         0.6592
     23 N6         19.3411    3.2769   -2.5659 N.2       1 <0>        -0.6021
     24 C17        19.5281    4.4388   -1.8640 C.ar      1 <0>         0.1410
     25 C18        18.5725    5.4547   -1.9228 C.ar      1 <0>        -0.1561
     26 C19        18.7663    6.6219   -1.2135 C.ar      1 <0>        -0.0874
     27 C20        19.9057    6.7869   -0.4444 C.ar      1 <0>        -0.0582
     28 C21        20.8573    5.7832   -0.3823 C.ar      1 <0>        -0.0875
     29 C22        20.6722    4.6091   -1.0825 C.ar      1 <0>        -0.1239
     30 Cl2        20.1423    8.2587    0.4453 Cl        1 <0>        -0.0714
     31 N7         18.0894    1.3712   -3.0205 N.pl3     1 <0>        -0.8467
     32 N8         16.7821    0.5248   -1.0981 N.2       1 <0>        -0.8077
     33 N9          7.7854    1.6840    6.3892 N.pl3     1 <0>        -0.8328
     34 N10         8.1703   -2.3798    6.0203 N.pl3     1 <0>        -0.8322
     35 H1          4.9509   -0.6063    7.0181 H         1 <0>         0.1470
     36 H2          4.1916   -2.7671    3.4068 H         1 <0>         0.1175
     37 H3          2.0408   -1.5959    3.1636 H         1 <0>         0.1226
     38 H4          2.8005    0.5635    6.7649 H         1 <0>         0.1219
     39 H5          9.2676    1.8598    4.0608 H         1 <0>         0.0613
     40 H6         10.3318    1.4195    5.4179 H         1 <0>         0.0596
     41 H7         11.2692   -0.4445    4.0779 H         1 <0>         0.0686
     42 H8         10.2050   -0.0041    2.7208 H         1 <0>         0.0699
     43 H9         11.2689    2.2330    2.6124 H         1 <0>         0.0668
     44 H10        12.3332    1.7926    3.9695 H         1 <0>         0.0662
     45 H11        13.2706   -0.0714    2.6295 H         1 <0>         0.0673
     46 H12        12.2063    0.3690    1.2724 H         1 <0>         0.0677
     47 H13        13.2703    2.6062    1.1640 H         1 <0>         0.0694
     48 H14        14.3345    2.1658    2.5211 H         1 <0>         0.0692
     49 H15        15.2719    0.3018    1.1811 H         1 <0>         0.0689
     50 H16        14.2077    0.7422   -0.1760 H         1 <0>         0.0691
     51 H17        17.6835    5.3273   -2.5227 H         1 <0>         0.1276
     52 H18        18.0279    7.4088   -1.2585 H         1 <0>         0.1338
     53 H19        21.7442    5.9180    0.2191 H         1 <0>         0.1351
     54 H20        21.4130    3.8249   -1.0295 H         1 <0>         0.1331
     55 H21        17.2117    0.9601   -2.9808 H         1 <0>         0.4194
     56 H22        18.7645    1.0164   -3.6198 H         1 <0>         0.4218
     57 H23        17.5204    0.2472   -1.6626 H         1 <0>         0.3560
     58 H24         7.0917    1.9409    7.0166 H         1 <0>         0.4163
     59 H25         8.4542    2.3304    6.1142 H         1 <0>         0.4018
     60 H26         8.9320   -1.9177    6.4041 H         1 <0>         0.4075
     61 H27         8.2571   -3.3021    5.7328 H         1 <0>         0.3919
     62 H28         8.8407   -0.8626    4.6794 H         1 <0>         0.4090
     63 H29        15.6988    3.0243    0.5625 H         1 <0>         0.4039
     64 H30        17.7902    3.4918   -0.5689 H         1 <0>         0.4145
     65 H31         6.0143   -3.3522    5.0976 H         1 <0>         0.4039
@<TRIPOS>BOND
     1    1    6 ar
     2    1    2 ar
     3    1   35 1
     4    2    3 ar
     5    2    8 1
     6    3    4 ar
     7    3   36 1
     8    4    5 ar
     9    4   37 1
    10    5    6 ar
    11    5    7 1
    12    6   38 1
    13    8    9 1
    14    8   65 1
    15    9   10 1
    16    9   34 2
    17   10   11 2
    18   11   12 1
    19   11   33 1
    20   12   13 1
    21   12   62 1
    22   13   14 1
    23   13   39 1
    24   13   40 1
    25   14   15 1
    26   14   41 1
    27   14   42 1
    28   15   16 1
    29   15   43 1
    30   15   44 1
    31   16   17 1
    32   16   45 1
    33   16   46 1
    34   17   18 1
    35   17   47 1
    36   17   48 1
    37   18   19 1
    38   18   49 1
    39   18   50 1
    40   19   20 1
    41   19   63 1
    42   20   21 1
    43   20   32 2
    44   21   22 1
    45   21   64 1
    46   22   23 2
    47   22   31 1
    48   23   24 1
    49   24   29 ar
    50   24   25 ar
    51   25   26 ar
    52   25   51 1
    53   26   27 ar
    54   26   52 1
    55   27   28 ar
    56   27   30 1
    57   28   29 ar
    58   28   53 1
    59   29   54 1
    60   31   55 1
    61   31   56 1
    62   32   57 1
    63   33   58 1
    64   33   59 1
    65   34   60 1
    66   34   61 1
@<TRIPOS>MOLECULE
ZINC18098320
   64    65     0     0     0
SMALL
NO_CHARGES

@<TRIPOS>ATOM
      1 C1         -3.8238   -2.6937    8.4621 C.ar      1 <0>        -0.1247
      2 C2         -2.8193   -2.0374    7.7489 C.ar      1 <0>         0.1609
      3 C3         -1.7827   -2.7754    7.1747 C.ar      1 <0>        -0.1884
      4 C4         -1.7568   -4.1475    7.3151 C.ar      1 <0>        -0.0818
      5 C5         -2.7564   -4.7928    8.0234 C.ar      1 <0>        -0.0681
      6 C6         -3.7868   -4.0663    8.5955 C.ar      1 <0>        -0.0821
      7 Cl1        -2.7171   -6.5198    8.1952 Cl        1 <0>        -0.0758
      8 N1         -2.8508   -0.6742    7.6125 N.2       1 <0>        -0.6290
      9 C7         -1.8339    0.0491    8.0171 C.2       1 <0>         0.6722
     10 N2         -0.7402   -0.5603    8.5905 N.pl3     1 <0>        -0.6778
     11 C8          0.2736    0.2056    9.1273 C.2       1 <0>         0.6407
     12 N3          1.4295   -0.3947    9.5670 N.pl3     1 <0>        -0.7605
     13 C9          2.5062    0.4188   10.1372 C.3       1 <0>         0.1236
     14 C10         3.6695   -0.4878   10.5443 C.3       1 <0>        -0.1298
     15 C11         4.7940    0.3618   11.1398 C.3       1 <0>        -0.1160
     16 C12         5.9573   -0.5448   11.5469 C.3       1 <0>        -0.1146
     17 C13         7.0818    0.3048   12.1424 C.3       1 <0>        -0.1355
     18 C14         8.2451   -0.6018   12.5495 C.3       1 <0>         0.1458
     19 N4          9.3218    0.2117   13.1197 N.pl3     1 <0>        -0.7178
     20 C15        10.4777   -0.3885   13.5594 C.2       1 <0>         0.6282
     21 N5         11.4915    0.3774   14.0963 N.pl3     1 <0>        -0.7211
     22 C16        12.7747   -0.1193   14.1510 C.2       1 <0>         0.6582
     23 N6         13.7144    0.5577   14.7671 N.2       1 <0>        -0.6049
     24 C17        13.4516    1.8143   15.2461 C.ar      1 <0>         0.1451
     25 C18        13.0777    2.8344   14.3696 C.ar      1 <0>        -0.1664
     26 C19        12.8139    4.0974   14.8580 C.ar      1 <0>        -0.0857
     27 C20        12.9194    4.3541   16.2144 C.ar      1 <0>        -0.0599
     28 C21        13.2902    3.3466   17.0888 C.ar      1 <0>        -0.0858
     29 C22        13.5510    2.0782   16.6133 C.ar      1 <0>        -0.1211
     30 Cl2        12.5858    5.9460   16.8214 Cl        1 <0>        -0.0717
     31 N7         13.0705   -1.3226   13.5608 N.pl3     1 <0>        -0.8440
     32 N8         10.6156   -1.6806   13.4691 N.2       1 <0>        -0.8078
     33 N9          0.1357    1.4977    9.2177 N.2       1 <0>        -0.8110
     34 N10        -1.8600    1.4133    7.8690 N.pl3     1 <0>        -0.8128
     35 H1         -4.6259   -2.1278    8.9123 H         1 <0>         0.1340
     36 H2         -1.0029   -2.2733    6.6214 H         1 <0>         0.1260
     37 H3         -0.9554   -4.7196    6.8714 H         1 <0>         0.1311
     38 H4         -4.5634   -4.5753    9.1471 H         1 <0>         0.1338
     39 H5          2.8496    1.1391    9.3947 H         1 <0>         0.0677
     40 H6          2.1352    0.9497   11.0140 H         1 <0>         0.0675
     41 H7          3.3262   -1.2081   11.2869 H         1 <0>         0.0734
     42 H8          4.0405   -1.0186    9.6676 H         1 <0>         0.0734
     43 H9          5.1374    1.0821   10.3973 H         1 <0>         0.0677
     44 H10         4.4230    0.8927   12.0166 H         1 <0>         0.0678
     45 H11         5.6140   -1.2651   12.2895 H         1 <0>         0.0685
     46 H12         6.3283   -1.0756   10.6702 H         1 <0>         0.0684
     47 H13         7.4251    1.0252   11.3999 H         1 <0>         0.0696
     48 H14         6.7108    0.8357   13.0192 H         1 <0>         0.0698
     49 H15         7.9017   -1.3221   13.2921 H         1 <0>         0.0697
     50 H16         8.6161   -1.1326   11.6728 H         1 <0>         0.0697
     51 H17        12.9955    2.6355   13.3113 H         1 <0>         0.1269
     52 H18        12.5249    4.8875   14.1808 H         1 <0>         0.1334
     53 H19        13.3710    3.5531   18.1458 H         1 <0>         0.1355
     54 H20        13.8355    1.2919   17.2969 H         1 <0>         0.1341
     55 H21        12.4569   -1.7112   12.9178 H         1 <0>         0.4193
     56 H22        13.8930   -1.7844   13.7868 H         1 <0>         0.4217
     57 H23        11.3983   -2.1123   13.8458 H         1 <0>         0.3552
     58 H24         0.8486    2.0363    9.5952 H         1 <0>         0.3547
     59 H25        -2.6225    1.8410    7.4486 H         1 <0>         0.4065
     60 H26        -1.1161    1.9498    8.1846 H         1 <0>         0.4283
     61 H27         1.5322   -1.3569    9.4997 H         1 <0>         0.3986
     62 H28         9.2191    1.1739   13.1870 H         1 <0>         0.4045
     63 H29        11.3005    1.2659   14.4354 H         1 <0>         0.4159
     64 H30        -0.6827   -1.5283    8.6168 H         1 <0>         0.4269
@<TRIPOS>BOND
     1    1    6 ar
     2    1    2 ar
     3    1   35 1
     4    2    3 ar
     5    2    8 1
     6    3    4 ar
     7    3   36 1
     8    4    5 ar
     9    4   37 1
    10    5    6 ar
    11    5    7 1
    12    6   38 1
    13    8    9 2
    14    9   10 1
    15    9   34 1
    16   10   11 1
    17   10   64 1
    18   11   12 1
    19   11   33 2
    20   12   13 1
    21   12   61 1
    22   13   14 1
    23   13   39 1
    24   13   40 1
    25   14   15 1
    26   14   41 1
    27   14   42 1
    28   15   16 1
    29   15   43 1
    30   15   44 1
    31   16   17 1
    32   16   45 1
    33   16   46 1
    34   17   18 1
    35   17   47 1
    36   17   48 1
    37   18   19 1
    38   18   49 1
    39   18   50 1
    40   19   20 1
    41   19   62 1
    42   20   21 1
    43   20   32 2
    44   21   22 1
    45   21   63 1
    46   22   23 2
    47   22   31 1
    48   23   24 1
    49   24   29 ar
    50   24   25 ar
    51   25   26 ar
    52   25   51 1
    53   26   27 ar
    54   26   52 1
    55   27   28 ar
    56   27   30 1
    57   28   29 ar
    58   28   53 1
    59   29   54 1
    60   31   55 1
    61   31   56 1
    62   32   57 1
    63   33   58 1
    64   34   59 1
    65   34   60 1
@<TRIPOS>MOLECULE
ZINC18098320
   64    65     0     0     0
SMALL
NO_CHARGES

@<TRIPOS>ATOM
      1 C1          0.1581   -5.4400    6.8734 C.ar      1 <0>        -0.1209
      2 C2          1.0725   -4.7501    6.0756 C.ar      1 <0>         0.1511
      3 C3          2.4257   -5.0898    6.1215 C.ar      1 <0>        -0.1733
      4 C4          2.8514   -6.1042    6.9540 C.ar      1 <0>        -0.0833
      5 C5          1.9395   -6.7851    7.7425 C.ar      1 <0>        -0.0614
      6 C6          0.5961   -6.4525    7.7018 C.ar      1 <0>        -0.0839
      7 Cl1         2.4828   -8.0608    8.7871 Cl        1 <0>        -0.0720
      8 N1          0.6435   -3.7437    5.2504 N.2       1 <0>        -0.6016
      9 C7          1.1019   -2.5249    5.4093 C.2       1 <0>         0.6570
     10 N2          1.9296   -2.2335    6.4705 N.pl3     1 <0>        -0.7300
     11 C8          1.9971   -0.9453    6.9591 C.2       1 <0>         0.6247
     12 N3          3.0723   -0.5548    7.7216 N.pl3     1 <0>        -0.7194
     13 C9          3.1439    0.8134    8.2405 C.3       1 <0>         0.1469
     14 C10         4.4308    0.9850    9.0500 C.3       1 <0>        -0.1354
     15 C11         4.5057    2.4139    9.5920 C.3       1 <0>        -0.1145
     16 C12         5.7926    2.5855   10.4015 C.3       1 <0>        -0.1144
     17 C13         5.8674    4.0144   10.9434 C.3       1 <0>        -0.1355
     18 C14         7.1543    4.1861   11.7530 C.3       1 <0>         0.1462
     19 N4          7.2260    5.5542   12.2719 N.pl3     1 <0>        -0.7188
     20 C15         8.3011    5.9447   13.0344 C.2       1 <0>         0.6239
     21 N5          8.3686    7.2329   13.5230 N.pl3     1 <0>        -0.7225
     22 C16         9.5871    7.7783   13.8605 C.2       1 <0>         0.6585
     23 N6          9.6416    8.9536   14.4408 N.2       1 <0>        -0.6015
     24 C17         8.4997    9.6954   14.5946 C.ar      1 <0>         0.1443
     25 C18         7.7627   10.0873   13.4757 C.ar      1 <0>        -0.1670
     26 C19         6.6137   10.8336   13.6371 C.ar      1 <0>        -0.0855
     27 C20         6.1912   11.1939   14.9054 C.ar      1 <0>        -0.0597
     28 C21         6.9181   10.8085   16.0190 C.ar      1 <0>        -0.0858
     29 C22         8.0656   10.0572   15.8710 C.ar      1 <0>        -0.1203
     30 Cl2         4.7442   12.1331   15.1002 Cl        1 <0>        -0.0716
     31 N7         10.7446    7.0923   13.5899 N.pl3     1 <0>        -0.8454
     32 N8          9.2561    5.0983   13.2955 N.2       1 <0>        -0.8013
     33 N9          1.0421   -0.0988    6.6980 N.2       1 <0>        -0.7974
     34 N10         0.7564   -1.5402    4.5179 N.pl3     1 <0>        -0.8346
     35 H1         -0.8895   -5.1787    6.8456 H         1 <0>         0.1335
     36 H2          3.1379   -4.5599    5.5063 H         1 <0>         0.1268
     37 H3          3.8980   -6.3680    6.9904 H         1 <0>         0.1336
     38 H4         -0.1104   -6.9870    8.3195 H         1 <0>         0.1353
     39 H5          3.1411    1.5180    7.4089 H         1 <0>         0.0687
     40 H6          2.2833    1.0044    8.8815 H         1 <0>         0.0685
     41 H7          4.4337    0.2804    9.8817 H         1 <0>         0.0696
     42 H8          5.2915    0.7940    8.4090 H         1 <0>         0.0693
     43 H9          4.5028    3.1185    8.7604 H         1 <0>         0.0673
     44 H10         3.6450    2.6049   10.2330 H         1 <0>         0.0674
     45 H11         5.7954    1.8809   11.2331 H         1 <0>         0.0675
     46 H12         6.6532    2.3945    9.7605 H         1 <0>         0.0673
     47 H13         5.8646    4.7190   10.1118 H         1 <0>         0.0694
     48 H14         5.0067    4.2054   11.5844 H         1 <0>         0.0696
     49 H15         7.1571    3.4814   12.5846 H         1 <0>         0.0689
     50 H16         8.0150    3.9950   11.1120 H         1 <0>         0.0689
     51 H17         8.0914    9.8072   12.4858 H         1 <0>         0.1271
     52 H18         6.0428   11.1378   12.7722 H         1 <0>         0.1336
     53 H19         6.5836   11.0929   17.0057 H         1 <0>         0.1355
     54 H20         8.6292    9.7531   16.7407 H         1 <0>         0.1342
     55 H21        10.7573    6.4187   12.8921 H         1 <0>         0.4180
     56 H22        11.5500    7.2811   14.0965 H         1 <0>         0.4224
     57 H23         9.9790    5.3512   13.8907 H         1 <0>         0.3547
     58 H24         0.2342   -0.4009    6.2542 H         1 <0>         0.3504
     59 H25         0.0464   -1.6949    3.8754 H         1 <0>         0.4238
     60 H26         1.2224   -0.6895    4.5303 H         1 <0>         0.4159
     61 H27         3.7834   -1.1851    7.9160 H         1 <0>         0.4037
     62 H28         6.5148    6.1845   12.0774 H         1 <0>         0.4041
     63 H29         7.5577    7.7546   13.6288 H         1 <0>         0.4153
     64 H30         2.4653   -2.9340    6.8744 H         1 <0>         0.4144
@<TRIPOS>BOND
     1    1    6 ar
     2    1    2 ar
     3    1   35 1
     4    2    3 ar
     5    2    8 1
     6    3    4 ar
     7    3   36 1
     8    4    5 ar
     9    4   37 1
    10    5    6 ar
    11    5    7 1
    12    6   38 1
    13    8    9 2
    14    9   10 1
    15    9   34 1
    16   10   11 1
    17   10   64 1
    18   11   12 1
    19   11   33 2
    20   12   13 1
    21   12   61 1
    22   13   14 1
    23   13   39 1
    24   13   40 1
    25   14   15 1
    26   14   41 1
    27   14   42 1
    28   15   16 1
    29   15   43 1
    30   15   44 1
    31   16   17 1
    32   16   45 1
    33   16   46 1
    34   17   18 1
    35   17   47 1
    36   17   48 1
    37   18   19 1
    38   18   49 1
    39   18   50 1
    40   19   20 1
    41   19   62 1
    42   20   21 1
    43   20   32 2
    44   21   22 1
    45   21   63 1
    46   22   23 2
    47   22   31 1
    48   23   24 1
    49   24   29 ar
    50   24   25 ar
    51   25   26 ar
    52   25   51 1
    53   26   27 ar
    54   26   52 1
    55   27   28 ar
    56   27   30 1
    57   28   29 ar
    58   28   53 1
    59   29   54 1
    60   31   55 1
    61   31   56 1
    62   32   57 1
    63   33   58 1
    64   34   59 1
    65   34   60 1
@<TRIPOS>MOLECULE
ZINC18098320
   64    65     0     0     0
SMALL
NO_CHARGES

@<TRIPOS>ATOM
      1 C1         -4.1874    4.0316    5.2060 C.ar      1 <0>        -0.1185
      2 C2         -3.2861    4.5782    4.2909 C.ar      1 <0>         0.1414
      3 C3         -2.8194    3.8004    3.2299 C.ar      1 <0>        -0.1677
      4 C4         -3.2509    2.4973    3.0917 C.ar      1 <0>        -0.0834
      5 C5         -4.1449    1.9608    4.0026 C.ar      1 <0>        -0.0598
      6 C6         -4.6114    2.7273    5.0571 C.ar      1 <0>        -0.0860
      7 Cl1        -4.6832    0.3203    3.8219 Cl        1 <0>        -0.0732
      8 N1         -2.8615    5.8733    4.4333 N.2       1 <0>        -0.6007
      9 C7         -1.5811    6.1351    4.5472 C.2       1 <0>         0.6520
     10 N2         -0.6660    5.1061    4.5555 N.pl3     1 <0>        -0.6706
     11 C8          0.6850    5.3845    4.5612 C.2       1 <0>         0.5951
     12 N3          1.5489    4.4168    4.6784 N.2       1 <0>        -0.5867
     13 C9          2.9774    4.7202    4.7944 C.3       1 <0>         0.0649
     14 C10         3.4848    4.2699    6.1657 C.3       1 <0>        -0.1130
     15 C11         4.9767    4.5868    6.2868 C.3       1 <0>        -0.1167
     16 C12         5.4841    4.1365    7.6582 C.3       1 <0>        -0.1144
     17 C13         6.9760    4.4534    7.7792 C.3       1 <0>        -0.1343
     18 C14         7.4834    4.0031    9.1506 C.3       1 <0>         0.1470
     19 N4          8.9119    4.3065    9.2665 N.pl3     1 <0>        -0.7201
     20 C15         9.5905    3.9901   10.4195 C.2       1 <0>         0.6216
     21 N5         10.9356    4.2758   10.5286 N.pl3     1 <0>        -0.7312
     22 C16        11.7060    3.6168   11.4605 C.2       1 <0>         0.6569
     23 N6         12.7866    4.1863   11.9391 N.2       1 <0>        -0.5985
     24 C17        13.2214    5.3770   11.4186 C.ar      1 <0>         0.1526
     25 C18        13.4946    5.4873   10.0541 C.ar      1 <0>        -0.1772
     26 C19        13.9316    6.6889    9.5360 C.ar      1 <0>        -0.0823
     27 C20        14.0993    7.7840   10.3664 C.ar      1 <0>        -0.0621
     28 C21        13.8305    7.6808   11.7207 C.ar      1 <0>        -0.0830
     29 C22        13.3874    6.4862   12.2498 C.ar      1 <0>        -0.1200
     30 Cl2        14.6496    9.2926    9.7069 Cl        1 <0>        -0.0721
     31 N7         11.3434    2.3643   11.8886 N.pl3     1 <0>        -0.8363
     32 N8          8.9633    3.4205   11.4088 N.2       1 <0>        -0.7924
     33 N9          1.1196    6.6834    4.4431 N.pl3     1 <0>        -0.9166
     34 N10        -1.1535    7.4345    4.6582 N.pl3     1 <0>        -0.8427
     35 H1         -4.5486    4.6270    6.0315 H         1 <0>         0.1342
     36 H2         -2.1223    4.2179    2.5185 H         1 <0>         0.1268
     37 H3         -2.8908    1.8946    2.2710 H         1 <0>         0.1326
     38 H4         -5.3084    2.3031    5.7646 H         1 <0>         0.1352
     39 H5          3.5253    4.1933    4.0132 H         1 <0>         0.0779
     40 H6          3.1309    5.7938    4.6847 H         1 <0>         0.0473
     41 H7          2.9369    4.7969    6.9469 H         1 <0>         0.0579
     42 H8          3.3313    3.1964    6.2754 H         1 <0>         0.0713
     43 H9          5.5246    4.0598    5.5057 H         1 <0>         0.0644
     44 H10         5.1302    5.6604    6.1772 H         1 <0>         0.0613
     45 H11         4.9362    4.6635    8.4393 H         1 <0>         0.0659
     46 H12         5.3306    3.0630    7.7678 H         1 <0>         0.0679
     47 H13         7.5240    3.9264    6.9981 H         1 <0>         0.0687
     48 H14         7.1295    5.5270    7.6696 H         1 <0>         0.0680
     49 H15         6.9355    4.5301    9.9317 H         1 <0>         0.0679
     50 H16         7.3299    2.9296    9.2602 H         1 <0>         0.0689
     51 H17        13.3644    4.6337    9.4054 H         1 <0>         0.1265
     52 H18        14.1436    6.7754    8.4806 H         1 <0>         0.1336
     53 H19        13.9636    8.5384   12.3634 H         1 <0>         0.1355
     54 H20        13.1735    6.4083   13.3055 H         1 <0>         0.1342
     55 H21        10.7109    1.8398   11.3731 H         1 <0>         0.4157
     56 H22        11.7197    2.0035   12.7066 H         1 <0>         0.4239
     57 H23         9.4312    3.2374   12.2385 H         1 <0>         0.3500
     58 H24         1.6656    7.0775    5.1413 H         1 <0>         0.4077
     59 H25         0.8802    7.2057    3.6616 H         1 <0>         0.4067
     60 H26        -1.6929    8.1551    4.2966 H         1 <0>         0.4146
     61 H27        -0.3120    7.6323    5.0982 H         1 <0>         0.4126
     62 H28         9.3790    4.7308    8.5298 H         1 <0>         0.4033
     63 H29        11.3387    4.9409    9.9489 H         1 <0>         0.4143
     64 H30        -0.9715    4.1854    4.5574 H         1 <0>         0.4332
@<TRIPOS>BOND
     1    1    6 ar
     2    1    2 ar
     3    1   35 1
     4    2    3 ar
     5    2    8 1
     6    3    4 ar
     7    3   36 1
     8    4    5 ar
     9    4   37 1
    10    5    6 ar
    11    5    7 1
    12    6   38 1
    13    8    9 2
    14    9   10 1
    15    9   34 1
    16   10   11 1
    17   10   64 1
    18   11   12 2
    19   11   33 1
    20   12   13 1
    21   13   14 1
    22   13   39 1
    23   13   40 1
    24   14   15 1
    25   14   41 1
    26   14   42 1
    27   15   16 1
    28   15   43 1
    29   15   44 1
    30   16   17 1
    31   16   45 1
    32   16   46 1
    33   17   18 1
    34   17   47 1
    35   17   48 1
    36   18   19 1
    37   18   49 1
    38   18   50 1
    39   19   20 1
    40   19   62 1
    41   20   21 1
    42   20   32 2
    43   21   22 1
    44   21   63 1
    45   22   23 2
    46   22   31 1
    47   23   24 1
    48   24   29 ar
    49   24   25 ar
    50   25   26 ar
    51   25   51 1
    52   26   27 ar
    53   26   52 1
    54   27   28 ar
    55   27   30 1
    56   28   29 ar
    57   28   53 1
    58   29   54 1
    59   31   55 1
    60   31   56 1
    61   32   57 1
    62   33   58 1
    63   33   59 1
    64   34   60 1
    65   34   61 1
@<TRIPOS>MOLECULE
ZINC18098320
   64    65     0     0     0
SMALL
NO_CHARGES

@<TRIPOS>ATOM
      1 C1         11.6789   -9.2555   -7.8268 C.ar      1 <0>        -0.1360
      2 C2         12.8676   -9.0028   -7.1378 C.ar      1 <0>         0.1703
      3 C3         13.7925  -10.0331   -6.9519 C.ar      1 <0>        -0.1387
      4 C4         13.5270  -11.2920   -7.4490 C.ar      1 <0>        -0.0907
      5 C5         12.3468  -11.5357   -8.1311 C.ar      1 <0>        -0.0693
      6 C6         11.4258  -10.5189   -8.3188 C.ar      1 <0>        -0.0910
      7 Cl1        12.0205  -13.1231   -8.7535 Cl        1 <0>        -0.0839
      8 N1         13.1250   -7.7520   -6.6478 N.2       1 <0>        -0.6421
      9 C7         13.4362   -7.5931   -5.3753 C.2       1 <0>         0.6343
     10 N2         13.3837   -8.6414   -4.5340 N.2       1 <0>        -0.6933
     11 C8         12.2174   -9.0756   -4.0919 C.2       1 <0>         0.6987
     12 N3         11.0593   -8.5299   -4.5701 N.pl3     1 <0>        -0.7471
     13 C9          9.7686   -8.9564   -4.0240 C.3       1 <0>         0.1066
     14 C10         8.6385   -8.2488   -4.7744 C.3       1 <0>        -0.1304
     15 C11         7.2979   -8.5987   -4.1253 C.3       1 <0>        -0.1143
     16 C12         6.1594   -7.9896   -4.9461 C.3       1 <0>        -0.1153
     17 C13         4.8281   -8.2368   -4.2337 C.3       1 <0>        -0.1340
     18 C14         3.6896   -7.6277   -5.0545 C.3       1 <0>         0.1500
     19 N4          2.4149   -7.8644   -4.3724 N.pl3     1 <0>        -0.7242
     20 C15         1.2435   -7.4048   -4.9258 C.2       1 <0>         0.6291
     21 N5          0.0433   -7.6277   -4.2835 N.pl3     1 <0>        -0.7363
     22 C16        -1.1406   -7.2863   -4.8986 C.2       1 <0>         0.6482
     23 N6         -2.1778   -8.0850   -4.8140 N.2       1 <0>        -0.5280
     24 C17        -2.0724   -9.2765   -4.1455 C.ar      1 <0>         0.1127
     25 C18        -1.0928  -10.2013   -4.5116 C.ar      1 <0>        -0.1365
     26 C19        -0.9914  -11.3989   -3.8343 C.ar      1 <0>        -0.0919
     27 C20        -1.8586  -11.6844   -2.7935 C.ar      1 <0>        -0.0496
     28 C21        -2.8325  -10.7715   -2.4259 C.ar      1 <0>        -0.0922
     29 C22        -2.9403   -9.5680   -3.0917 C.ar      1 <0>        -0.1073
     30 Cl2        -1.7247  -13.1936   -1.9461 Cl        1 <0>        -0.0688
     31 N7         -1.2353   -6.1104   -5.5999 N.pl3     1 <0>        -0.8741
     32 N8          1.2669   -6.7587   -6.0566 N.2       1 <0>        -0.8057
     33 N9         12.1687  -10.0705   -3.1563 N.pl3     1 <0>        -0.8270
     34 N10        13.8153   -6.3526   -4.9080 N.pl3     1 <0>        -0.8349
     35 H1         10.9578   -8.4644   -7.9700 H         1 <0>         0.1238
     36 H2         14.7135   -9.8443   -6.4205 H         1 <0>         0.1262
     37 H3         14.2414  -12.0894   -7.3063 H         1 <0>         0.1252
     38 H4         10.5072  -10.7156   -8.8517 H         1 <0>         0.1271
     39 H5          9.6629  -10.0349   -4.1411 H         1 <0>         0.0688
     40 H6          9.7189   -8.6992   -2.9659 H         1 <0>         0.0678
     41 H7          8.7927   -7.1706   -4.7309 H         1 <0>         0.0712
     42 H8          8.6341   -8.5735   -5.8149 H         1 <0>         0.0744
     43 H9          7.1823   -9.6820   -4.0916 H         1 <0>         0.0672
     44 H10         7.2695   -8.1986   -3.1118 H         1 <0>         0.0663
     45 H11         6.3212   -6.9168   -5.0517 H         1 <0>         0.0677
     46 H12         6.1349   -8.4522   -5.9327 H         1 <0>         0.0686
     47 H13         4.6663   -9.3095   -4.1281 H         1 <0>         0.0685
     48 H14         4.8526   -7.7742   -3.2471 H         1 <0>         0.0680
     49 H15         3.8515   -6.5550   -5.1601 H         1 <0>         0.0665
     50 H16         3.6652   -8.0903   -6.0411 H         1 <0>         0.0663
     51 H17        -0.4161   -9.9798   -5.3235 H         1 <0>         0.1270
     52 H18        -0.2343  -12.1153   -4.1168 H         1 <0>         0.1339
     53 H19        -3.5063  -11.0001   -1.6134 H         1 <0>         0.1377
     54 H20        -3.6973   -8.8547   -2.8010 H         1 <0>         0.1365
     55 H21        -1.1570   -5.2617   -5.1368 H         1 <0>         0.4144
     56 H22        -1.3806   -6.1280   -6.5588 H         1 <0>         0.4157
     57 H23         0.4605   -6.3349   -6.3897 H         1 <0>         0.3511
     58 H24        12.9907  -10.4578   -2.8169 H         1 <0>         0.4238
     59 H25        11.3121  -10.3893   -2.8316 H         1 <0>         0.4101
     60 H26        13.8531   -5.5966   -5.5146 H         1 <0>         0.4092
     61 H27        14.0441   -6.2357   -3.9727 H         1 <0>         0.4071
     62 H28        11.0920   -7.8603   -5.2711 H         1 <0>         0.4174
     63 H29         2.3975   -8.3455   -3.5303 H         1 <0>         0.4011
     64 H30         0.0331   -8.0249   -3.3986 H         1 <0>         0.4043
@<TRIPOS>BOND
     1    1    6 ar
     2    1    2 ar
     3    1   35 1
     4    2    3 ar
     5    2    8 1
     6    3    4 ar
     7    3   36 1
     8    4    5 ar
     9    4   37 1
    10    5    6 ar
    11    5    7 1
    12    6   38 1
    13    8    9 2
    14    9   10 1
    15    9   34 1
    16   10   11 2
    17   11   12 1
    18   11   33 1
    19   12   13 1
    20   12   62 1
    21   13   14 1
    22   13   39 1
    23   13   40 1
    24   14   15 1
    25   14   41 1
    26   14   42 1
    27   15   16 1
    28   15   43 1
    29   15   44 1
    30   16   17 1
    31   16   45 1
    32   16   46 1
    33   17   18 1
    34   17   47 1
    35   17   48 1
    36   18   19 1
    37   18   49 1
    38   18   50 1
    39   19   20 1
    40   19   63 1
    41   20   21 1
    42   20   32 2
    43   21   22 1
    44   21   64 1
    45   22   23 2
    46   22   31 1
    47   23   24 1
    48   24   29 ar
    49   24   25 ar
    50   25   26 ar
    51   25   51 1
    52   26   27 ar
    53   26   52 1
    54   27   28 ar
    55   27   30 1
    56   28   29 ar
    57   28   53 1
    58   29   54 1
    59   31   55 1
    60   31   56 1
    61   32   57 1
    62   33   58 1
    63   33   59 1
    64   34   60 1
    65   34   61 1
@<TRIPOS>MOLECULE
ZINC18098320
   66    67     0     0     0
SMALL
USER_CHARGES

@<TRIPOS>ATOM
      1 C1          1.2773    0.6066    1.2415 C.ar      1 <0>        -0.1354
      2 C2          1.7346    1.5098    0.3021 C.ar      1 <0>        -0.0782
      3 C3          2.6926    2.4460    0.6495 C.ar      1 <0>        -0.0207
      4 C4          3.1950    2.4799    1.9385 C.ar      1 <0>        -0.0772
      5 C5          2.7411    1.5790    2.8818 C.ar      1 <0>        -0.0926
      6 C6          1.7794    0.6387    2.5359 C.ar      1 <0>         0.0865
      7 N1          1.3175   -0.2749    3.4898 N.pl3     1 <0>        -0.6027
      8 C7          0.9792   -1.5460    3.1122 C.cat     1 <0>         0.7488
      9 N2          0.4118   -2.3629    3.9793 N.pl3     1 <0>        -0.6335
     10 C8          0.2102   -3.6560    3.6551 C.2       1 <0>         0.6032
     11 N3         -0.7999   -4.3714    4.2660 N.pl3     1 <0>        -0.7006
     12 C9         -1.0189   -5.7764    3.9138 C.3       1 <0>         0.1385
     13 C10        -2.1896   -6.3300    4.7286 C.3       1 <0>        -0.1369
     14 C11        -2.4183   -7.7974    4.3607 C.3       1 <0>        -0.1167
     15 C12        -3.5890   -8.3510    5.1756 C.3       1 <0>        -0.1154
     16 C13        -3.8177   -9.8184    4.8077 C.3       1 <0>        -0.1411
     17 C14        -4.9884  -10.3719    5.6226 C.3       1 <0>         0.1072
     18 N4         -5.2074  -11.7770    5.2703 N.pl3     1 <0>        -0.6312
     19 C15        -6.1661  -12.4559    5.8502 C.cat     1 <0>         0.7155
     20 N5         -6.3725  -13.7798    5.5182 N.pl3     1 <0>        -0.8497
     21 N6         -6.9512  -11.8615    6.7712 N.2       1 <0>        -0.6443
     22 C16        -7.2770  -12.5062    7.8754 C.2       1 <0>         0.7258
     23 N7         -8.1229  -11.9278    8.7805 N.pl3     1 <0>        -0.7872
     24 N8         -6.7683  -13.7538    8.1147 N.pl3     1 <0>        -0.6841
     25 C17        -7.3992  -14.6028    9.0308 C.ar      1 <0>         0.1105
     26 C18        -8.7770  -14.5474    9.1957 C.ar      1 <0>        -0.1398
     27 C19        -9.3972  -15.3865   10.1006 C.ar      1 <0>        -0.0761
     28 C20        -8.6470  -16.2818   10.8425 C.ar      1 <0>        -0.0343
     29 C21        -7.2739  -16.3390   10.6801 C.ar      1 <0>        -0.0767
     30 C22        -6.6493  -15.5062    9.7725 C.ar      1 <0>        -0.1144
     31 Cl1        -9.4296  -17.3346   11.9795 Cl        1 <0>        -0.0380
     32 N9          0.9730   -4.2336    2.7602 N.2       1 <0>        -0.7515
     33 N10         1.2290   -1.9695    1.8365 N.pl3     1 <0>        -0.8107
     34 Cl2         3.2657    3.5795   -0.5339 Cl        1 <0>        -0.0274
     35 H1          0.5266   -0.1212    0.9709 H         1 <0>         0.1449
     36 H2          1.3444    1.4852   -0.7047 H         1 <0>         0.1554
     37 H3          3.9429    3.2113    2.2070 H         1 <0>         0.1573
     38 H4          3.1340    1.6054    3.8875 H         1 <0>         0.1516
     39 H5         -1.2478   -5.8531    2.8508 H         1 <0>         0.0792
     40 H6         -0.1191   -6.3508    4.1341 H         1 <0>         0.0796
     41 H7         -1.9608   -6.2534    5.7916 H         1 <0>         0.0740
     42 H8         -3.0894   -5.7557    4.5083 H         1 <0>         0.0742
     43 H9         -2.6472   -7.8740    3.2978 H         1 <0>         0.0720
     44 H10        -1.5185   -8.3717    4.5810 H         1 <0>         0.0716
     45 H11        -3.3602   -8.2743    6.2386 H         1 <0>         0.0715
     46 H12        -4.4888   -7.7766    4.9553 H         1 <0>         0.0730
     47 H13        -4.0466   -9.8950    3.7447 H         1 <0>         0.0804
     48 H14        -2.9179  -10.3927    5.0280 H         1 <0>         0.0788
     49 H15        -4.7596  -10.2953    6.6855 H         1 <0>         0.0948
     50 H16        -5.8882   -9.7976    5.4023 H         1 <0>         0.1026
     51 H17        -5.7425  -14.2389    4.9410 H         1 <0>         0.4237
     52 H18        -7.1475  -14.2509    5.8622 H         1 <0>         0.4333
     53 H19        -8.6435  -11.1489    8.5289 H         1 <0>         0.4389
     54 H20        -8.2025  -12.2962    9.6743 H         1 <0>         0.4318
     55 H21        -5.9703  -14.0496    7.6492 H         1 <0>         0.4273
     56 H22        -9.3630  -13.8486    8.6171 H         1 <0>         0.1414
     57 H23       -10.4686  -15.3436   10.2295 H         1 <0>         0.1502
     58 H24        -6.6907  -17.0387   11.2604 H         1 <0>         0.1502
     59 H25        -5.5782  -15.5544    9.6428 H         1 <0>         0.1418
     60 H26         1.6822   -3.7306    2.3300 H         1 <0>         0.3592
     61 H27         1.9245   -1.5434    1.3114 H         1 <0>         0.4456
     62 H28         0.7108   -2.6960    1.4564 H         1 <0>         0.4454
     63 H29        -1.3647   -3.9438    4.9287 H         1 <0>         0.4137
     64 H30        -4.6426  -12.2046    4.6077 H         1 <0>         0.4293
     65 H31         0.1398   -2.0331    4.8500 H         1 <0>         0.4405
     66 H32         1.2371   -0.0073    4.4187 H         1 <0>         0.4470
@<TRIPOS>BOND
     1    1    6 ar
     2    1    2 ar
     3    1   35 1
     4    2    3 ar
     5    2   36 1
     6    3    4 ar
     7    3   34 1
     8    4    5 ar
     9    4   37 1
    10    5    6 ar
    11    5   38 1
    12    6    7 1
    13    7    8 1
    14    7   66 1
    15    8    9 2
    16    8   33 1
    17    9   10 1
    18    9   65 1
    19   10   11 1
    20   10   32 2
    21   11   12 1
    22   11   63 1
    23   12   13 1
    24   12   39 1
    25   12   40 1
    26   13   14 1
    27   13   41 1
    28   13   42 1
    29   14   15 1
    30   14   43 1
    31   14   44 1
    32   15   16 1
    33   15   45 1
    34   15   46 1
    35   16   17 1
    36   16   47 1
    37   16   48 1
    38   17   18 1
    39   17   49 1
    40   17   50 1
    41   18   19 2
    42   18   64 1
    43   19   20 1
    44   19   21 1
    45   20   51 1
    46   20   52 1
    47   21   22 2
    48   22   23 1
    49   22   24 1
    50   23   53 1
    51   23   54 1
    52   24   25 1
    53   24   55 1
    54   25   30 ar
    55   25   26 ar
    56   26   27 ar
    57   26   56 1
    58   27   28 ar
    59   27   57 1
    60   28   29 ar
    61   28   31 1
    62   29   30 ar
    63   29   58 1
    64   30   59 1
    65   32   60 1
    66   33   61 1
    67   33   62 1
@<TRIPOS>MOLECULE
ZINC18098320
   65    66     0     0     0
SMALL
USER_CHARGES

@<TRIPOS>ATOM
      1 C1          2.0265    6.9575    3.8328 C.ar      1 <0>        -0.0867
      2 C2          2.2180    5.6449    3.4213 C.ar      1 <0>         0.1132
      3 C3          1.2065    4.9782    2.7422 C.ar      1 <0>        -0.1090
      4 C4          0.0134    5.6216    2.4779 C.ar      1 <0>        -0.0911
      5 C5         -0.1746    6.9296    2.8887 C.ar      1 <0>        -0.0285
      6 C6          0.8314    7.5962    3.5659 C.ar      1 <0>        -0.0943
      7 Cl1        -1.6754    7.7356    2.5543 Cl        1 <0>        -0.0471
      8 N1          3.4277    4.9957    3.6900 N.pl3     1 <0>        -0.6116
      9 C7          4.6124    5.7063    3.6697 C.cat     1 <0>         0.7238
     10 N2          4.6076    7.0160    3.3488 N.2       1 <0>        -0.6506
     11 C8          5.5450    7.5052    2.5594 C.2       1 <0>         0.7194
     12 N3          6.4653    6.6691    1.9916 N.pl3     1 <0>        -0.7431
     13 C9          7.5423    7.2188    1.1645 C.3       1 <0>         0.0885
     14 C10         8.4264    6.0788    0.6548 C.3       1 <0>        -0.1329
     15 C11         9.5512    6.6529   -0.2090 C.3       1 <0>        -0.1173
     16 C12        10.4354    5.5130   -0.7186 C.3       1 <0>        -0.1150
     17 C13        11.5601    6.0870   -1.5824 C.3       1 <0>        -0.1310
     18 C14        12.4443    4.9471   -2.0921 C.3       1 <0>         0.1425
     19 N4         13.5213    5.4967   -2.9192 N.pl3     1 <0>        -0.7041
     20 C15        14.4469    4.6559   -3.4902 C.2       1 <0>         0.6419
     21 N5         15.5357    5.1791   -4.1562 N.pl3     1 <0>        -0.6786
     22 C16        15.7737    6.5351   -4.1279 C.2       1 <0>         0.6539
     23 N6         15.0377    7.3146   -3.3718 N.2       1 <0>        -0.6205
     24 C17        15.3286    8.6503   -3.2769 C.ar      1 <0>         0.1417
     25 C18        16.5995    9.0639   -2.8739 C.ar      1 <0>        -0.1490
     26 C19        16.8864   10.4100   -2.7808 C.ar      1 <0>        -0.0888
     27 C20        15.9168   11.3501   -3.0860 C.ar      1 <0>        -0.0558
     28 C21        14.6543   10.9462   -3.4858 C.ar      1 <0>        -0.0901
     29 C22        14.3569    9.6030   -3.5883 C.ar      1 <0>        -0.1203
     30 Cl2        16.2856   13.0423   -2.9663 Cl        1 <0>        -0.0694
     31 N7         16.7808    7.0711   -4.8907 N.pl3     1 <0>        -0.8762
     32 N8         14.2957    3.3651   -3.4024 N.2       1 <0>        -0.8026
     33 N9          5.5956    8.8481    2.3094 N.pl3     1 <0>        -0.7858
     34 N10         5.7404    5.1077    3.9623 N.pl3     1 <0>        -0.8044
     35 H1          2.8098    7.4768    4.3650 H         1 <0>         0.1568
     36 H2          1.3529    3.9576    2.4208 H         1 <0>         0.1413
     37 H3         -0.7735    5.1035    1.9499 H         1 <0>         0.1474
     38 H4          0.6819    8.6168    3.8860 H         1 <0>         0.1456
     39 H5          7.1129    7.7525    0.3166 H         1 <0>         0.0859
     40 H6          8.1431    7.9061    1.7600 H         1 <0>         0.0894
     41 H7          8.8558    5.5451    1.5027 H         1 <0>         0.0760
     42 H8          7.8256    5.3915    0.0593 H         1 <0>         0.0766
     43 H9          9.1219    7.1866   -1.0569 H         1 <0>         0.0709
     44 H10        10.1520    7.3403    0.3866 H         1 <0>         0.0713
     45 H11        10.8647    4.9792    0.1293 H         1 <0>         0.0674
     46 H12         9.8346    4.8256   -1.3142 H         1 <0>         0.0676
     47 H13        11.1308    6.6207   -2.4303 H         1 <0>         0.0672
     48 H14        12.1609    6.7744   -0.9869 H         1 <0>         0.0700
     49 H15        12.8736    4.4133   -1.2442 H         1 <0>         0.0589
     50 H16        11.8435    4.2597   -2.6876 H         1 <0>         0.0619
     51 H17        17.3565    8.3315   -2.6352 H         1 <0>         0.1277
     52 H18        17.8692   10.7313   -2.4688 H         1 <0>         0.1330
     53 H19        13.9021   11.6843   -3.7222 H         1 <0>         0.1345
     54 H20        13.3732    9.2892   -3.9049 H         1 <0>         0.1317
     55 H21        16.7535    8.0078   -5.1412 H         1 <0>         0.4193
     56 H22        17.5200    6.5132   -5.1794 H         1 <0>         0.4044
     57 H23        14.9846    2.7720   -3.7409 H         1 <0>         0.3408
     58 H24         4.9425    9.4414    2.7124 H         1 <0>         0.4391
     59 H25         6.2847    9.2077    1.7291 H         1 <0>         0.4284
     60 H26         6.5736    5.6036    3.9366 H         1 <0>         0.4373
     61 H27         5.7423    4.1684    4.2048 H         1 <0>         0.4289
     62 H28         6.4053    5.7118    2.1363 H         1 <0>         0.4163
     63 H29        13.5813    6.4540   -3.0639 H         1 <0>         0.4249
     64 H30        16.1337    4.5918   -4.6444 H         1 <0>         0.4241
     65 H31         3.4347    4.0467    3.8905 H         1 <0>         0.4341
@<TRIPOS>BOND
     1    1    6 ar
     2    1    2 ar
     3    1   35 1
     4    2    3 ar
     5    2    8 1
     6    3    4 ar
     7    3   36 1
     8    4    5 ar
     9    4   37 1
    10    5    6 ar
    11    5    7 1
    12    6   38 1
    13    8    9 1
    14    8   65 1
    15    9   10 1
    16    9   34 2
    17   10   11 2
    18   11   12 1
    19   11   33 1
    20   12   13 1
    21   12   62 1
    22   13   14 1
    23   13   39 1
    24   13   40 1
    25   14   15 1
    26   14   41 1
    27   14   42 1
    28   15   16 1
    29   15   43 1
    30   15   44 1
    31   16   17 1
    32   16   45 1
    33   16   46 1
    34   17   18 1
    35   17   47 1
    36   17   48 1
    37   18   19 1
    38   18   49 1
    39   18   50 1
    40   19   20 1
    41   19   63 1
    42   20   21 1
    43   20   32 2
    44   21   22 1
    45   21   64 1
    46   22   23 2
    47   22   31 1
    48   23   24 1
    49   24   29 ar
    50   24   25 ar
    51   25   26 ar
    52   25   51 1
    53   26   27 ar
    54   26   52 1
    55   27   28 ar
    56   27   30 1
    57   28   29 ar
    58   28   53 1
    59   29   54 1
    60   31   55 1
    61   31   56 1
    62   32   57 1
    63   33   58 1
    64   33   59 1
    65   34   60 1
    66   34   61 1
@<TRIPOS>MOLECULE
ZINC18098320
   64    65     0     0     0
SMALL
NO_CHARGES

@<TRIPOS>ATOM
      1 C1         -3.5705    2.7789   -0.2130 C.ar      1 <0>        -0.1280
      2 C2         -2.6191    3.7778   -0.2220 C.ar      1 <0>        -0.0846
      3 C3         -1.2809    3.4647   -0.0544 C.ar      1 <0>        -0.0667
      4 C4         -0.8889    2.1488    0.1237 C.ar      1 <0>        -0.0841
      5 C5         -1.8309    1.1410    0.1350 C.ar      1 <0>        -0.1753
      6 C6         -3.1816    1.4502   -0.0340 C.ar      1 <0>         0.1576
      7 N1         -4.1220    0.4536   -0.0236 N.2       1 <0>        -0.6296
      8 C7         -4.0652   -0.5111   -0.9109 C.2       1 <0>         0.6754
      9 N2         -3.1757   -0.4310   -1.9591 N.pl3     1 <0>        -0.6754
     10 C8         -3.2146   -1.3689   -2.9698 C.2       1 <0>         0.6370
     11 N3         -2.2617   -1.3517   -3.9605 N.pl3     1 <0>        -0.7614
     12 C9         -2.3029   -2.3478   -5.0339 C.3       1 <0>         0.1243
     13 C10        -1.1392   -2.1074   -5.9977 C.3       1 <0>        -0.1294
     14 C11        -1.1823   -3.1477   -7.1188 C.3       1 <0>        -0.1155
     15 C12        -0.0186   -2.9073   -8.0826 C.3       1 <0>        -0.1144
     16 C13        -0.0617   -3.9476   -9.2037 C.3       1 <0>        -0.1300
     17 C14         1.1020   -3.7072  -10.1675 C.3       1 <0>         0.1416
     18 N4          1.0608   -4.7033  -11.2410 N.pl3     1 <0>        -0.7029
     19 C15         2.0137   -4.6861  -12.2317 C.2       1 <0>         0.6414
     20 N5          3.0100   -3.8498  -12.1625 N.2       1 <0>        -0.8025
     21 N6          1.9148   -5.5543  -13.2989 N.pl3     1 <0>        -0.6788
     22 C16         0.7981   -6.3476  -13.4400 C.2       1 <0>         0.6535
     23 N7          0.7582   -7.3086  -14.4190 N.pl3     1 <0>        -0.8735
     24 N8         -0.2277   -6.1847  -12.6386 N.2       1 <0>        -0.6217
     25 C17        -1.3680   -6.9209  -12.8269 C.ar      1 <0>         0.1437
     26 C18        -2.0410   -6.8705  -14.0489 C.ar      1 <0>        -0.1529
     27 C19        -3.1881   -7.6144  -14.2325 C.ar      1 <0>        -0.0887
     28 C20        -3.6725   -8.4095  -13.2077 C.ar      1 <0>        -0.0567
     29 C21        -3.0098   -8.4634  -11.9932 C.ar      1 <0>        -0.0885
     30 C22        -1.8581   -7.7289  -11.7995 C.ar      1 <0>        -0.1197
     31 Cl1        -5.1170   -9.3423  -13.4462 Cl        1 <0>        -0.0715
     32 N9         -4.1541   -2.2709   -2.9855 N.2       1 <0>        -0.8094
     33 N10        -4.8923   -1.6001   -0.7945 N.pl3     1 <0>        -0.8115
     34 Cl2        -0.0894    4.7272   -0.0680 Cl        1 <0>        -0.0763
     35 H1         -4.6145    3.0248   -0.3398 H         1 <0>         0.1328
     36 H2         -2.9187    4.8061   -0.3605 H         1 <0>         0.1330
     37 H3          0.1565    1.9108    0.2536 H         1 <0>         0.1309
     38 H4         -1.5239    0.1149    0.2736 H         1 <0>         0.1258
     39 H5         -2.2197   -3.3468   -4.6059 H         1 <0>         0.0671
     40 H6         -3.2458   -2.2612   -5.5739 H         1 <0>         0.0669
     41 H7         -1.2224   -1.1084   -6.4257 H         1 <0>         0.0727
     42 H8         -0.1963   -2.1940   -5.4577 H         1 <0>         0.0728
     43 H9         -1.0991   -4.1467   -6.6908 H         1 <0>         0.0670
     44 H10        -2.1251   -3.0611   -7.6588 H         1 <0>         0.0673
     45 H11        -0.1017   -1.9083   -8.5106 H         1 <0>         0.0666
     46 H12         0.9243   -2.9939   -7.5426 H         1 <0>         0.0667
     47 H13         0.0215   -4.9466   -8.7757 H         1 <0>         0.0660
     48 H14        -1.0045   -3.8610   -9.7437 H         1 <0>         0.0687
     49 H15         1.0189   -2.7082  -10.5955 H         1 <0>         0.0600
     50 H16         2.0449   -3.7938   -9.6275 H         1 <0>         0.0622
     51 H17         3.6417   -3.7864  -12.8958 H         1 <0>         0.3388
     52 H18         0.0948   -8.0151  -14.3784 H         1 <0>         0.4191
     53 H19         1.3936   -7.2814  -15.1515 H         1 <0>         0.4030
     54 H20        -1.6645   -6.2502  -14.8488 H         1 <0>         0.1275
     55 H21        -3.7097   -7.5763  -15.1774 H         1 <0>         0.1323
     56 H22        -3.3928   -9.0849  -11.1974 H         1 <0>         0.1350
     57 H23        -1.3396   -7.7752  -10.8532 H         1 <0>         0.1331
     58 H24        -4.1814   -2.9304   -3.6963 H         1 <0>         0.3530
     59 H25        -5.6233   -1.5880   -0.1569 H         1 <0>         0.4078
     60 H26        -4.7460   -2.3819   -1.3497 H         1 <0>         0.4274
     61 H27        -1.5620   -0.6800   -3.9488 H         1 <0>         0.3978
     62 H28         0.3611   -5.3750  -11.2527 H         1 <0>         0.4249
     63 H29         2.6319   -5.6061  -13.9500 H         1 <0>         0.4230
     64 H30        -2.5219    0.2849   -1.9866 H         1 <0>         0.4253
@<TRIPOS>BOND
     1    1    6 ar
     2    1    2 ar
     3    1   35 1
     4    2    3 ar
     5    2   36 1
     6    3    4 ar
     7    3   34 1
     8    4    5 ar
     9    4   37 1
    10    5    6 ar
    11    5   38 1
    12    6    7 1
    13    7    8 2
    14    8    9 1
    15    8   33 1
    16    9   10 1
    17    9   64 1
    18   10   11 1
    19   10   32 2
    20   11   12 1
    21   11   61 1
    22   12   13 1
    23   12   39 1
    24   12   40 1
    25   13   14 1
    26   13   41 1
    27   13   42 1
    28   14   15 1
    29   14   43 1
    30   14   44 1
    31   15   16 1
    32   15   45 1
    33   15   46 1
    34   16   17 1
    35   16   47 1
    36   16   48 1
    37   17   18 1
    38   17   49 1
    39   17   50 1
    40   18   19 1
    41   18   62 1
    42   19   20 2
    43   19   21 1
    44   20   51 1
    45   21   22 1
    46   21   63 1
    47   22   23 1
    48   22   24 2
    49   23   52 1
    50   23   53 1
    51   24   25 1
    52   25   30 ar
    53   25   26 ar
    54   26   27 ar
    55   26   54 1
    56   27   28 ar
    57   27   55 1
    58   28   29 ar
    59   28   31 1
    60   29   30 ar
    61   29   56 1
    62   30   57 1
    63   32   58 1
    64   33   59 1
    65   33   60 1
@<TRIPOS>MOLECULE
ZINC18098320
   64    65     0     0     0
SMALL
NO_CHARGES

@<TRIPOS>ATOM
      1 C1         -3.9038    6.9848   -7.3081 C.ar      1 <0>        -0.1245
      2 C2         -3.2480    7.5277   -8.3937 C.ar      1 <0>        -0.0867
      3 C3         -1.8641    7.5427   -8.4336 C.ar      1 <0>        -0.0589
      4 C4         -1.1298    7.0142   -7.3855 C.ar      1 <0>        -0.0863
      5 C5         -1.7740    6.4690   -6.2942 C.ar      1 <0>        -0.1572
      6 C6         -3.1691    6.4504   -6.2483 C.ar      1 <0>         0.1459
      7 N1         -3.8146    5.9102   -5.1670 N.2       1 <0>        -0.5998
      8 C7         -3.7971    4.6128   -4.9735 C.2       1 <0>         0.6586
      9 N2         -3.2954    3.7781   -5.9470 N.pl3     1 <0>        -0.7266
     10 C8         -3.7651    2.4859   -6.0568 C.2       1 <0>         0.6266
     11 N3         -3.1593    1.6054   -6.9213 N.pl3     1 <0>        -0.7192
     12 C9         -3.6582    0.2329   -7.0379 C.3       1 <0>         0.1477
     13 C10        -2.8142   -0.5315   -8.0598 C.3       1 <0>        -0.1349
     14 C11        -3.3353   -1.9649   -8.1815 C.3       1 <0>        -0.1142
     15 C12        -2.4913   -2.7293   -9.2034 C.3       1 <0>        -0.1140
     16 C13        -3.0124   -4.1627   -9.3251 C.3       1 <0>        -0.1296
     17 C14        -2.1684   -4.9271  -10.3470 C.3       1 <0>         0.1400
     18 N4         -2.6673   -6.2996  -10.4635 N.pl3     1 <0>        -0.7054
     19 C15        -2.0614   -7.1801  -11.3281 C.2       1 <0>         0.6391
     20 N5         -1.1047   -6.7699  -12.1110 N.2       1 <0>        -0.8038
     21 N6         -2.4668   -8.4980  -11.3666 N.pl3     1 <0>        -0.6783
     22 C16        -3.5765   -8.8981  -10.6560 C.2       1 <0>         0.6574
     23 N7         -4.1758   -8.0570   -9.8472 N.2       1 <0>        -0.6208
     24 C17        -5.3538   -8.4094   -9.2424 C.ar      1 <0>         0.1399
     25 C18        -6.4909   -8.6570  -10.0134 C.ar      1 <0>        -0.1405
     26 C19        -7.6739   -9.0114   -9.3986 C.ar      1 <0>        -0.0911
     27 C20        -7.7349   -9.1217   -8.0198 C.ar      1 <0>        -0.0540
     28 C21        -6.6106   -8.8774   -7.2496 C.ar      1 <0>        -0.0908
     29 C22        -5.4203   -8.5279   -7.8530 C.ar      1 <0>        -0.1196
     30 Cl1        -9.2275   -9.5675   -7.2535 Cl        1 <0>        -0.0716
     31 N8         -4.0554  -10.1769  -10.7941 N.pl3     1 <0>        -0.8768
     32 N9         -4.7828    2.0999   -5.3412 N.2       1 <0>        -0.8081
     33 N10        -4.2790    4.0874   -3.8007 N.pl3     1 <0>        -0.8375
     34 Cl2        -1.0462    8.2266   -9.8037 Cl        1 <0>        -0.0721
     35 H1         -4.9833    6.9773   -7.2763 H         1 <0>         0.1316
     36 H2         -3.8153    7.9414   -9.2143 H         1 <0>         0.1345
     37 H3         -0.0506    7.0286   -7.4225 H         1 <0>         0.1340
     38 H4         -1.2001    6.0567   -5.4774 H         1 <0>         0.1284
     39 H5         -3.5914   -0.2616   -6.0688 H         1 <0>         0.0685
     40 H6         -4.6976    0.2507   -7.3657 H         1 <0>         0.0681
     41 H7         -2.8811   -0.0371   -9.0289 H         1 <0>         0.0690
     42 H8         -1.7748   -0.5494   -7.7319 H         1 <0>         0.0689
     43 H9         -3.2684   -2.4594   -7.2124 H         1 <0>         0.0668
     44 H10        -4.3747   -1.9471   -8.5093 H         1 <0>         0.0668
     45 H11        -2.5581   -2.2349  -10.1725 H         1 <0>         0.0657
     46 H12        -1.4519   -2.7472   -8.8755 H         1 <0>         0.0655
     47 H13        -2.9455   -4.6571   -8.3560 H         1 <0>         0.0669
     48 H14        -4.0517   -4.1448   -9.6529 H         1 <0>         0.0666
     49 H15        -2.2352   -4.4327  -11.3161 H         1 <0>         0.0612
     50 H16        -1.1290   -4.9450  -10.0191 H         1 <0>         0.0592
     51 H17        -3.4251   -6.5871   -9.9307 H         1 <0>         0.4266
     52 H18        -0.7270   -7.3714  -12.7716 H         1 <0>         0.3381
     53 H19        -1.9701   -9.1430  -11.8941 H         1 <0>         0.4231
     54 H20        -6.4446   -8.5709  -11.0890 H         1 <0>         0.1267
     55 H21        -8.5544   -9.2029   -9.9940 H         1 <0>         0.1324
     56 H22        -6.6645   -8.9647   -6.1745 H         1 <0>         0.1348
     57 H23        -4.5428   -8.3419   -7.2515 H         1 <0>         0.1333
     58 H24        -4.5878  -10.5743  -10.0874 H         1 <0>         0.4181
     59 H25        -3.8614  -10.6832  -11.5984 H         1 <0>         0.4041
     60 H26        -5.2065    2.7194   -4.7267 H         1 <0>         0.3506
     61 H27        -4.8084    4.6388   -3.2036 H         1 <0>         0.4234
     62 H28        -4.0901    3.1646   -3.5689 H         1 <0>         0.4176
     63 H29        -2.4015    1.8928   -7.4542 H         1 <0>         0.4036
     64 H30        -2.6115    4.0989   -6.5556 H         1 <0>         0.4128
@<TRIPOS>BOND
     1    1    6 ar
     2    1    2 ar
     3    1   35 1
     4    2    3 ar
     5    2   36 1
     6    3    4 ar
     7    3   34 1
     8    4    5 ar
     9    4   37 1
    10    5    6 ar
    11    5   38 1
    12    6    7 1
    13    7    8 2
    14    8    9 1
    15    8   33 1
    16    9   10 1
    17    9   64 1
    18   10   11 1
    19   10   32 2
    20   11   12 1
    21   11   63 1
    22   12   13 1
    23   12   39 1
    24   12   40 1
    25   13   14 1
    26   13   41 1
    27   13   42 1
    28   14   15 1
    29   14   43 1
    30   14   44 1
    31   15   16 1
    32   15   45 1
    33   15   46 1
    34   16   17 1
    35   16   47 1
    36   16   48 1
    37   17   18 1
    38   17   49 1
    39   17   50 1
    40   18   19 1
    41   18   51 1
    42   19   20 2
    43   19   21 1
    44   20   52 1
    45   21   22 1
    46   21   53 1
    47   22   23 2
    48   22   31 1
    49   23   24 1
    50   24   29 ar
    51   24   25 ar
    52   25   26 ar
    53   25   54 1
    54   26   27 ar
    55   26   55 1
    56   27   28 ar
    57   27   30 1
    58   28   29 ar
    59   28   56 1
    60   29   57 1
    61   31   58 1
    62   31   59 1
    63   32   60 1
    64   33   61 1
    65   33   62 1
@<TRIPOS>MOLECULE
ZINC18098320
   66    67     0     0     0
SMALL
NO_CHARGES

@<TRIPOS>ATOM
      1 C1         -4.8510   -1.6940   -1.9875 C.ar      1 <0>        -0.1047
      2 C2         -5.8940   -0.8497   -1.6612 C.ar      1 <0>        -0.0928
      3 C3         -6.5153   -0.9595   -0.4295 C.ar      1 <0>        -0.0713
      4 C4         -6.0933   -1.9148    0.4784 C.ar      1 <0>        -0.0893
      5 C5         -5.0507   -2.7617    0.1571 C.ar      1 <0>        -0.1595
      6 C6         -4.4258   -2.6539   -1.0784 C.ar      1 <0>         0.1875
      7 N1         -3.3695   -3.5110   -1.4067 N.pl3     1 <0>        -0.6589
      8 C7         -2.3541   -3.0699   -2.2241 C.2       1 <0>         0.5599
      9 N2         -2.3516   -1.8403   -2.6540 N.2       1 <0>        -0.8436
     10 N3         -1.3388   -3.9300   -2.5883 N.pl3     1 <0>        -0.6216
     11 C8         -1.4068   -5.2633   -2.2416 C.cat     1 <0>         0.1383
     12 N4         -0.3123   -5.9509   -2.0805 N.pl3     1 <0>        -0.8256
     13 N5         -2.6295   -5.8663   -2.0660 N.pl3     1 <0>        -0.7215
     14 C9         -2.7033   -7.2394   -1.5606 C.3       1 <0>         0.1381
     15 C10        -4.1687   -7.6675   -1.4592 C.3       1 <0>        -0.1319
     16 C11        -4.2457   -9.1015   -0.9313 C.3       1 <0>        -0.1142
     17 C12        -5.7111   -9.5296   -0.8299 C.3       1 <0>        -0.1164
     18 C13        -5.7881  -10.9636   -0.3021 C.3       1 <0>        -0.1255
     19 C14        -7.2535  -11.3917   -0.2007 C.3       1 <0>         0.1048
     20 N6         -7.3272  -12.7648    0.3047 N.pl3     1 <0>        -0.6756
     21 C15        -8.5500  -13.3679    0.4803 C.cat     1 <0>         0.4925
     22 N7         -9.6353  -12.7678    0.0821 N.pl3     1 <0>        -0.8060
     23 N8         -8.6276  -14.6084    1.0782 N.pl3     1 <0>        -0.6076
     24 C16        -7.4990  -15.1816    1.6268 C.2       1 <0>         0.5747
     25 N9         -6.3958  -14.4946    1.7127 N.2       1 <0>        -0.8234
     26 N10        -7.5388  -16.4793    2.0832 N.pl3     1 <0>        -0.6840
     27 C17        -8.6871  -17.2547    1.8880 C.ar      1 <0>         0.1309
     28 C18        -9.3603  -17.2075    0.6742 C.ar      1 <0>        -0.1689
     29 C19       -10.4931  -17.9742    0.4840 C.ar      1 <0>        -0.0732
     30 C20       -10.9576  -18.7889    1.5016 C.ar      1 <0>        -0.0714
     31 C21       -10.2888  -18.8378    2.7121 C.ar      1 <0>        -0.0775
     32 C22        -9.1524  -18.0771    2.9057 C.ar      1 <0>        -0.1346
     33 Cl1       -12.3823  -19.7509    1.2594 Cl        1 <0>        -0.0692
     34 Cl2        -7.8261    0.1035   -0.0225 Cl        1 <0>        -0.0869
     35 H1         -4.3693   -1.6109   -2.9506 H         1 <0>         0.1553
     36 H2         -6.2248   -0.1028   -2.3677 H         1 <0>         0.1279
     37 H3         -6.5794   -1.9979    1.4392 H         1 <0>         0.1279
     38 H4         -4.7217   -3.5071    0.8660 H         1 <0>         0.1234
     39 H5         -3.3531   -4.4160   -1.0581 H         1 <0>         0.4128
     40 H6         -1.6771   -1.5494   -3.2875 H         1 <0>         0.3286
     41 H7         -0.3595   -6.9048   -1.9107 H         1 <0>         0.3914
     42 H8         -3.4436   -5.3827   -2.2767 H         1 <0>         0.3937
     43 H9         -2.1763   -7.9064   -2.2427 H         1 <0>         0.0462
     44 H10        -2.2412   -7.2890   -0.5746 H         1 <0>         0.0484
     45 H11        -4.6957   -7.0005   -0.7770 H         1 <0>         0.0667
     46 H12        -4.6307   -7.6179   -2.4451 H         1 <0>         0.0676
     47 H13        -3.7187   -9.7686   -1.6135 H         1 <0>         0.0657
     48 H14        -3.7836   -9.1511    0.0546 H         1 <0>         0.0662
     49 H15        -6.2381   -8.8626   -0.1477 H         1 <0>         0.0665
     50 H16        -6.1731   -9.4801   -1.8159 H         1 <0>         0.0660
     51 H17        -5.2610  -11.6307   -0.9843 H         1 <0>         0.0713
     52 H18        -5.3260  -11.0132    0.6839 H         1 <0>         0.0739
     53 H19        -7.7805  -10.7247    0.4815 H         1 <0>         0.0622
     54 H20        -7.7155  -11.3422   -1.1867 H         1 <0>         0.0622
     55 H21        -6.5132  -13.2485    0.5154 H         1 <0>         0.4339
     56 H22       -10.5028  -13.1576    0.2725 H         1 <0>         0.4128
     57 H23        -9.4758  -15.0779    1.1129 H         1 <0>         0.4258
     58 H24        -5.6238  -14.8711    2.1636 H         1 <0>         0.3513
     59 H25        -6.7708  -16.8564    2.5402 H         1 <0>         0.4223
     60 H26        -8.9984  -16.5716   -0.1201 H         1 <0>         0.1322
     61 H27       -11.0172  -17.9376   -0.4596 H         1 <0>         0.1360
     62 H28       -10.6533  -19.4745    3.5046 H         1 <0>         0.1362
     63 H29        -8.6284  -18.1188    3.8492 H         1 <0>         0.1331
     64 H30        -9.5760  -11.9310   -0.4050 H         1 <0>         0.4221
     65 H31         0.5498   -5.5092   -2.1303 H         1 <0>         0.3895
     66 H32        -0.5771   -3.5971   -3.0882 H         1 <0>         0.4092
@<TRIPOS>BOND
     1    1    6 ar
     2    1    2 ar
     3    1   35 1
     4    2    3 ar
     5    2   36 1
     6    3    4 ar
     7    3   34 1
     8    4    5 ar
     9    4   37 1
    10    5    6 ar
    11    5   38 1
    12    6    7 1
    13    7    8 1
    14    7   39 1
    15    8    9 2
    16    8   10 1
    17    9   40 1
    18   10   11 1
    19   10   66 1
    20   11   12 2
    21   11   13 1
    22   12   41 1
    23   12   65 1
    24   13   14 1
    25   13   42 1
    26   14   15 1
    27   14   43 1
    28   14   44 1
    29   15   16 1
    30   15   45 1
    31   15   46 1
    32   16   17 1
    33   16   47 1
    34   16   48 1
    35   17   18 1
    36   17   49 1
    37   17   50 1
    38   18   19 1
    39   18   51 1
    40   18   52 1
    41   19   20 1
    42   19   53 1
    43   19   54 1
    44   20   21 1
    45   20   55 1
    46   21   22 2
    47   21   23 1
    48   22   56 1
    49   22   64 1
    50   23   24 1
    51   23   57 1
    52   24   25 2
    53   24   26 1
    54   25   58 1
    55   26   27 1
    56   26   59 1
    57   27   32 ar
    58   27   28 ar
    59   28   29 ar
    60   28   60 1
    61   29   30 ar
    62   29   61 1
    63   30   31 ar
    64   30   33 1
    65   31   32 ar
    66   31   62 1
    67   32   63 1
@<TRIPOS>MOLECULE
ZINC18098320
   64    65     0     0     0
SMALL
USER_CHARGES

@<TRIPOS>ATOM
      1 C1          0.1669   -0.6887   -3.5802 C.ar      1 <0>        -0.1000
      2 C2          1.3248    0.0186   -3.8379 C.ar      1 <0>        -0.0921
      3 C3          2.0317    0.5943   -2.7968 C.ar      1 <0>        -0.0598
      4 C4          1.5808    0.4630   -1.4951 C.ar      1 <0>        -0.0904
      5 C5          0.4233   -0.2429   -1.2318 C.ar      1 <0>        -0.1487
      6 C6         -0.2880   -0.8216   -2.2748 C.ar      1 <0>         0.1820
      7 N1         -1.4609   -1.5371   -2.0109 N.pl3     1 <0>        -0.6543
      8 C7         -1.7968   -2.6255   -2.7928 C.2       1 <0>         0.6016
      9 N2         -2.9662   -3.2657   -2.5906 N.2       1 <0>        -0.6938
     10 C8         -2.9695   -4.5322   -2.2203 C.2       1 <0>         0.6862
     11 N3         -1.7920   -5.1620   -1.9284 N.pl3     1 <0>        -0.7518
     12 C9         -1.7831   -6.5958   -1.6281 C.3       1 <0>         0.1066
     13 C10        -0.3501   -7.0473   -1.3386 C.3       1 <0>        -0.1311
     14 C11        -0.3408   -8.5448   -1.0249 C.3       1 <0>        -0.1141
     15 C12         1.0921   -8.9963   -0.7355 C.3       1 <0>        -0.1154
     16 C13         1.1014  -10.4938   -0.4218 C.3       1 <0>        -0.1292
     17 C14         2.5343  -10.9453   -0.1323 C.3       1 <0>         0.1411
     18 N4          2.5433  -12.3792    0.1680 N.pl3     1 <0>        -0.7026
     19 C15         3.7275  -13.0126    0.4616 C.2       1 <0>         0.6406
     20 N5          4.8226  -12.3191    0.5902 N.2       1 <0>        -0.8015
     21 N6          3.7561  -14.3826    0.6199 N.pl3     1 <0>        -0.6784
     22 C16         2.6302  -15.1299    0.3551 C.2       1 <0>         0.6534
     23 N7          2.6206  -16.4755    0.6252 N.pl3     1 <0>        -0.8752
     24 N8          1.5668  -14.5558   -0.1553 N.2       1 <0>        -0.6199
     25 C17         0.4859  -15.3154   -0.5190 C.ar      1 <0>         0.1454
     26 C18         0.6541  -16.4151   -1.3624 C.ar      1 <0>        -0.1561
     27 C19        -0.4380  -17.1760   -1.7250 C.ar      1 <0>        -0.0881
     28 C20        -1.6989  -16.8507   -1.2545 C.ar      1 <0>        -0.0578
     29 C21        -1.8721  -15.7613   -0.4178 C.ar      1 <0>        -0.0882
     30 C22        -0.7870  -14.9963   -0.0430 C.ar      1 <0>        -0.1187
     31 Cl1        -3.0684  -17.8124   -1.7162 Cl        1 <0>        -0.0721
     32 N9         -4.1505   -5.2143   -2.1285 N.pl3     1 <0>        -0.8282
     33 N10        -0.9792   -3.0354   -3.7308 N.2       1 <0>        -0.8044
     34 Cl2         3.4871    1.4822   -3.1242 Cl        1 <0>        -0.0784
     35 H1         -0.3866   -1.1342   -4.3935 H         1 <0>         0.1522
     36 H2          1.6791    0.1223   -4.8529 H         1 <0>         0.1319
     37 H3          2.1348    0.9126   -0.6843 H         1 <0>         0.1327
     38 H4          0.0719   -0.3450   -0.2157 H         1 <0>         0.1292
     39 H5         -2.4078   -6.7882   -0.7559 H         1 <0>         0.0674
     40 H6         -2.1725   -7.1486   -2.4830 H         1 <0>         0.0692
     41 H7          0.2746   -6.8549   -2.2108 H         1 <0>         0.0736
     42 H8          0.0393   -6.4946   -0.4836 H         1 <0>         0.0717
     43 H9         -0.9656   -8.7372   -0.1527 H         1 <0>         0.0663
     44 H10        -0.7302   -9.0975   -1.8799 H         1 <0>         0.0670
     45 H11         1.7169   -8.8039   -1.6076 H         1 <0>         0.0671
     46 H12         1.4815   -8.4436    0.1195 H         1 <0>         0.0667
     47 H13         0.4766  -10.6862    0.4504 H         1 <0>         0.0657
     48 H14         0.7120  -11.0465   -1.2767 H         1 <0>         0.0685
     49 H15         3.1591  -10.7529   -1.0045 H         1 <0>         0.0600
     50 H16         2.9237  -10.3926    0.7227 H         1 <0>         0.0626
     51 H17         5.6700  -12.7714    0.7249 H         1 <0>         0.3389
     52 H18         1.7772  -16.9472    0.7099 H         1 <0>         0.4192
     53 H19         3.4572  -16.9549    0.7314 H         1 <0>         0.4032
     54 H20         1.6370  -16.6693   -1.7306 H         1 <0>         0.1279
     55 H21        -0.3092  -18.0269   -2.3774 H         1 <0>         0.1320
     56 H22        -2.8582  -15.5126   -0.0540 H         1 <0>         0.1348
     57 H23        -0.9226  -14.1497    0.6137 H         1 <0>         0.1334
     58 H24        -4.9861   -4.7673   -2.3357 H         1 <0>         0.4237
     59 H25        -4.1529   -6.1453   -1.8563 H         1 <0>         0.4101
     60 H26        -1.1813   -3.8407   -4.2324 H         1 <0>         0.3389
     61 H27        -0.9623   -4.6595   -1.9202 H         1 <0>         0.4176
     62 H28         1.7136  -12.8816    0.1598 H         1 <0>         0.4249
     63 H29         4.5693  -14.8195    0.9177 H         1 <0>         0.4230
     64 H30        -2.0382   -1.2691   -1.2789 H         1 <0>         0.4141
@<TRIPOS>BOND
     1    1    6 ar
     2    1    2 ar
     3    1   35 1
     4    2    3 ar
     5    2   36 1
     6    3    4 ar
     7    3   34 1
     8    4    5 ar
     9    4   37 1
    10    5    6 ar
    11    5   38 1
    12    6    7 1
    13    7    8 1
    14    7   64 1
    15    8    9 1
    16    8   33 2
    17    9   10 2
    18   10   11 1
    19   10   32 1
    20   11   12 1
    21   11   61 1
    22   12   13 1
    23   12   39 1
    24   12   40 1
    25   13   14 1
    26   13   41 1
    27   13   42 1
    28   14   15 1
    29   14   43 1
    30   14   44 1
    31   15   16 1
    32   15   45 1
    33   15   46 1
    34   16   17 1
    35   16   47 1
    36   16   48 1
    37   17   18 1
    38   17   49 1
    39   17   50 1
    40   18   19 1
    41   18   62 1
    42   19   20 2
    43   19   21 1
    44   20   51 1
    45   21   22 1
    46   21   63 1
    47   22   23 1
    48   22   24 2
    49   23   52 1
    50   23   53 1
    51   24   25 1
    52   25   30 ar
    53   25   26 ar
    54   26   27 ar
    55   26   54 1
    56   27   28 ar
    57   27   55 1
    58   28   29 ar
    59   28   31 1
    60   29   30 ar
    61   29   56 1
    62   30   57 1
    63   32   58 1
    64   32   59 1
    65   33   60 1
