@<TRIPOS>MOLECULE
ZINC00086067
   16    17     0     0     0
SMALL
USER_CHARGES
4,5,6,7-tetrachloroindane-1,3-dione
@<TRIPOS>ATOM
      1 C1          4.6998    0.7523   -0.0410 C.2       1 <0>        -0.6000
      2 C2          3.8047   -0.4640   -0.0388 C.2       1 <0>         0.3940
      3 O1          4.1653   -1.6216   -0.0491 O.3       1 <0>        -0.5158
      4 C3          2.4132    0.0161   -0.0219 C.ar      1 <0>        -0.0782
      5 C4          2.3941    1.4259   -0.0137 C.ar      1 <0>        -0.0751
      6 C5          1.1685    2.0975    0.0022 C.ar      1 <0>        -0.0003
      7 C6         -0.0167    1.3804    0.0096 C.ar      1 <0>        -0.0236
      8 C7          0.0021   -0.0041    0.0020 C.ar      1 <0>        -0.0229
      9 C8          1.2063   -0.6886   -0.0137 C.ar      1 <0>        -0.0016
     10 Cl1         1.2163   -2.4245   -0.0237 Cl        1 <0>        -0.0240
     11 Cl2        -1.4924   -0.8873    0.0116 Cl        1 <0>        -0.0294
     12 Cl3        -1.5346    2.2227    0.0214 Cl        1 <0>        -0.0291
     13 Cl4         1.1314    3.8330    0.0113 Cl        1 <0>        -0.0233
     14 C9          3.7720    1.9437   -0.0247 C.2       1 <0>         0.4114
     15 O2          4.1012    3.1108   -0.0214 O.2       1 <0>        -0.5146
     16 H1          5.7930    0.6307   -0.0529 H         1 <0>         0.1323
@<TRIPOS>BOND
     1    1   14 1
     2    1    2 2
     3    1   16 1
     4    2    3 1
     5    2    4 1
     6    4    9 ar
     7    4    5 ar
     8    5    6 ar
     9    5   14 1
    10    6    7 ar
    11    6   13 1
    12    7    8 ar
    13    7   12 1
    14    8    9 ar
    15    8   11 1
    16    9   10 1
    17   14   15 2
@<TRIPOS>MOLECULE
ZINC00086067
   17    18     0     0     0
SMALL
USER_CHARGES
4,5,6,7-tetrachloro-3-hydroxy-inden-1-one
@<TRIPOS>ATOM
      1 C1          2.9164    3.6608   -0.0069 C.3       1 <0>        -0.2576
      2 C2          3.4742    2.4253   -0.0166 C.2       1 <0>         0.3946
      3 C3          2.3987    1.4050   -0.0128 C.ar      1 <0>        -0.0967
      4 C4          1.1716    2.0949    0.0021 C.ar      1 <0>        -0.1259
      5 C5         -0.0169    1.3920    0.0097 C.ar      1 <0>         0.0347
      6 C6          0.0021   -0.0041    0.0020 C.ar      1 <0>        -0.0038
      7 C7          1.2022   -0.6818   -0.0135 C.ar      1 <0>        -0.0075
      8 C8          2.4077    0.0203   -0.0208 C.ar      1 <0>         0.0372
      9 Cl1         3.9154   -0.8399   -0.0393 Cl        1 <0>         0.0138
     10 Cl2         1.2138   -2.4177   -0.0235 Cl        1 <0>         0.0126
     11 Cl3        -1.4912   -0.8894    0.0115 Cl        1 <0>         0.0130
     12 Cl4        -1.5306    2.2418    0.0215 Cl        1 <0>         0.0090
     13 C9          1.5038    3.5457    0.0063 C.2       1 <0>         0.4312
     14 O1          0.7080    4.4650    0.0190 O.2       1 <0>        -0.3980
     15 O2          4.7996    2.1651   -0.0300 O.2       1 <0>        -0.4431
     16 H1          3.4649    4.5911   -0.0075 H         1 <0>         0.2179
     17 H2          2.7709    3.9682   -0.9473 H         1 <0>         0.1687
@<TRIPOS>BOND
     1    1   17 1
     2    1   16 1
     3    1    2 1
     4    1   13 1
     5    2    3 1
     6    2   15 2
     7    3    8 ar
     8    3    4 ar
     9    4    5 ar
    10    4   13 1
    11    5    6 ar
    12    5   12 1
    13    6    7 ar
    14    6   11 1
    15    7    8 ar
    16    7   10 1
    17    8    9 1
    18   13   14 2
