@<TRIPOS>MOLECULE
ZINC00552573
   31    33     0     0     0
SMALL
USER_CHARGES
9-amino-8-benzoyl-4-oxo-7-thia-5-azabicyclo[4.3.0]nona-2,8,10-triene-3-carboxylic acid
@<TRIPOS>ATOM
      1 C1          0.3530   -2.7072    0.6583 C.ar      1 <0>        -0.0990
      2 C2         -0.6081   -1.9864    1.3446 C.ar      1 <0>        -0.1249
      3 C3         -0.7338   -0.6281    1.1387 C.ar      1 <0>        -0.0839
      4 C4          0.1112    0.0188    0.2359 C.ar      1 <0>        -0.1440
      5 C5          1.0747   -0.7150   -0.4575 C.ar      1 <0>        -0.0677
      6 C6          1.1935   -2.0719   -0.2386 C.ar      1 <0>        -0.1299
      7 C7         -0.0180    1.4756    0.0102 C.2       1 <0>         0.4895
      8 O1          0.9409    2.1194   -0.3790 O.2       1 <0>        -0.4925
      9 C8         -1.2532    2.1185    0.2399 C.2       1 <0>        -0.4054
     10 C9         -1.5356    3.4724    0.2075 C.2       1 <0>         0.3486
     11 C10        -2.9105    3.8679    0.4849 C.2       1 <0>        -0.2460
     12 C11        -3.4420    5.1846    0.5099 C.2       1 <0>         0.0108
     13 C12        -4.7835    5.3834    0.7938 C.2       1 <0>        -0.2002
     14 C13        -5.6434    4.2301    1.0657 C.2       1 <0>         0.5367
     15 O2         -6.8253    4.3858    1.3164 O.2       1 <0>        -0.4656
     16 N1         -5.1082    2.9934    1.0343 N.am      1 <0>        -0.5836
     17 H1         -5.6892    2.2008    1.2193 H         1 <0>         0.4184
     18 C14        -3.7927    2.8072    0.7554 C.2       1 <0>         0.1330
     19 S1         -2.8252    1.3824    0.6338 S.3       1 <0>         0.1632
     20 C15        -5.3394    6.7420    0.8212 C.2       1 <0>         0.4996
     21 O3         -4.6218    7.6971    0.5947 O.co2     1 <0>        -0.6357
     22 N2         -0.5566    4.4090   -0.0762 N.pl3     1 <0>        -0.8132
     23 H2          0.4473   -3.7704    0.8230 H         1 <0>         0.1251
     24 H3         -1.2616   -2.4883    2.0428 H         1 <0>         0.1291
     25 H4         -1.4846   -0.0666    1.6748 H         1 <0>         0.1357
     26 H5          1.7286   -0.2210   -1.1609 H         1 <0>         0.1313
     27 H6          1.9412   -2.6403   -0.7718 H         1 <0>         0.1268
     28 H7         -2.8011    6.0302    0.3085 H         1 <0>         0.1394
     29 H8          0.3518    4.1214   -0.2577 H         1 <0>         0.4202
     30 H9         -0.7790    5.3530   -0.0936 H         1 <0>         0.4073
     31 O4         -6.6456    6.9306    1.0974 O.co2     1 <0>        -0.7230
@<TRIPOS>BOND
     1    1    6 ar
     2    1    2 ar
     3    1   23 1
     4    2    3 ar
     5    2   24 1
     6    3    4 ar
     7    3   25 1
     8    4    5 ar
     9    4    7 1
    10    5    6 ar
    11    5   26 1
    12    6   27 1
    13    7    8 2
    14    7    9 1
    15    9   19 1
    16    9   10 2
    17   10   11 1
    18   10   22 1
    19   11   18 2
    20   11   12 1
    21   12   13 2
    22   12   28 1
    23   13   14 1
    24   13   20 1
    25   14   15 2
    26   14   16 am
    27   16   17 1
    28   16   18 1
    29   18   19 1
    30   20   21 2
    31   20   31 1
    32   22   29 1
    33   22   30 1
