@<TRIPOS>MOLECULE
ZINC01670654
   25    26     0     0     0
SMALL
USER_CHARGES
5-benzyl-1H-pyrimidine-2,4-dione
@<TRIPOS>ATOM
      1 C1         -2.0785    2.5007   -3.4529 C.ar      1 <0>        -0.1220
      2 C2         -1.0663    3.2585   -2.8942 C.ar      1 <0>        -0.1204
      3 C3         -0.3980    2.8008   -1.7740 C.ar      1 <0>        -0.1045
      4 C4         -0.7416    1.5850   -1.2129 C.ar      1 <0>        -0.0847
      5 C5         -1.7499    0.8246   -1.7750 C.ar      1 <0>        -0.1177
      6 C6         -2.4217    1.2848   -2.8921 C.ar      1 <0>        -0.1222
      7 C7         -0.0127    1.0858    0.0080 C.3       1 <0>        -0.0073
      8 C8         -0.7181    1.5718    1.2479 C.2       1 <0>        -0.2549
      9 C9         -1.6301    0.7916    1.8663 C.2       1 <0>         0.1737
     10 N1         -2.2580    1.2466    2.9938 N.am      1 <0>        -0.6406
     11 H1         -2.9280    0.6658    3.4562 H         1 <0>         0.4451
     12 C10        -1.9824    2.4680    3.4860 C.2       1 <0>         0.6973
     13 O1         -2.5551    2.8541    4.4867 O.2       1 <0>        -0.5407
     14 N2         -1.0815    3.2684    2.8866 N.am      1 <0>        -0.6624
     15 H2         -0.8889    4.1733    3.2661 H         1 <0>         0.4389
     16 C11        -0.4376    2.8549    1.7764 C.2       1 <0>         0.5553
     17 O2          0.3775    3.5786    1.2332 O.2       1 <0>        -0.5056
     18 H3         -2.6009    2.8585   -4.3278 H         1 <0>         0.1204
     19 H4         -0.7979    4.2083   -3.3326 H         1 <0>         0.1213
     20 H5          0.3927    3.3928   -1.3375 H         1 <0>         0.1285
     21 H6         -2.0153   -0.1273   -1.3392 H         1 <0>         0.1201
     22 H7         -3.2122    0.6925   -3.3288 H         1 <0>         0.1211
     23 H8          0.0021   -0.0041    0.0020 H         1 <0>         0.0876
     24 H9          1.0099    1.4631    0.0003 H         1 <0>         0.0929
     25 H10        -1.8601   -0.1885    1.4753 H         1 <0>         0.1806
@<TRIPOS>BOND
     1    1    6 ar
     2    1    2 ar
     3    1   18 1
     4    2    3 ar
     5    2   19 1
     6    3    4 ar
     7    3   20 1
     8    4    5 ar
     9    4    7 1
    10    5    6 ar
    11    5   21 1
    12    6   22 1
    13    7    8 1
    14    7   23 1
    15    7   24 1
    16    8   16 1
    17    8    9 2
    18    9   10 1
    19    9   25 1
    20   10   11 1
    21   10   12 am
    22   12   13 2
    23   12   14 am
    24   14   15 1
    25   14   16 am
    26   16   17 2
