@<TRIPOS>MOLECULE
ZINC34375693
   63    66     0     0     0
SMALL
USER_CHARGES

@<TRIPOS>ATOM
      1 C1         -1.2806    1.1939    0.1734 C.3       1 <0>        -0.1527
      2 C2         -0.6070   -0.1509    0.0795 C.ar      1 <0>         0.2613
      3 C3         -0.6056   -0.8218   -1.1369 C.ar      1 <0>        -0.2032
      4 C4          0.0096   -2.0582   -1.2378 C.ar      1 <0>         0.3299
      5 C5          0.6193   -2.5910   -0.0775 C.ar      1 <0>        -0.1110
      6 C6          1.2629   -3.8364   -0.0978 C.ar      1 <0>        -0.0729
      7 C7          1.8387   -4.3156    1.0401 C.ar      1 <0>        -0.0921
      8 C8          1.7958   -3.5838    2.2244 C.ar      1 <0>        -0.0281
      9 C9          1.1787   -2.3717    2.2784 C.ar      1 <0>        -0.1369
     10 C10         0.5742   -1.8445    1.1241 C.ar      1 <0>         0.1632
     11 N1         -0.0335   -0.6529    1.1477 N.ar      1 <0>        -0.4818
     12 N2          0.0273   -2.7546   -2.4416 N.am      1 <0>        -0.6626
     13 C11        -0.0896   -2.0883   -3.6073 C.2       1 <0>         0.7138
     14 O1         -0.1063   -0.8727   -3.6136 O.2       1 <0>        -0.5386
     15 N3         -0.1879   -2.7696   -4.7660 N.am      1 <0>        -0.7274
     16 C12        -0.3149   -2.0454   -6.0331 C.3       1 <0>         0.1097
     17 C13        -0.4084   -3.0470   -7.1859 C.3       1 <0>        -0.0226
     18 N4         -0.5358   -2.3208   -8.4565 N.4       1 <0>        -0.3781
     19 C14         0.6876   -1.5475   -8.7011 C.3       1 <0>        -0.0110
     20 C15         0.5286   -0.7259   -9.9822 C.3       1 <0>        -0.1315
     21 C16         0.2761   -1.6712  -11.1603 C.3       1 <0>         0.1317
     22 C17        -0.9595   -2.5250  -10.8613 C.3       1 <0>        -0.1780
     23 C18        -0.7453   -3.2799   -9.5476 C.3       1 <0>        -0.0012
     24 C19         0.0373   -0.8528  -12.4308 C.3       1 <0>        -0.1057
     25 C20        -0.3317   -1.7776  -13.5620 C.ar      1 <0>        -0.1065
     26 C21         0.6564   -2.3155  -14.3653 C.ar      1 <0>        -0.1203
     27 C22         0.3179   -3.1638  -15.4030 C.ar      1 <0>        -0.1101
     28 C23        -1.0086   -3.4745  -15.6371 C.ar      1 <0>        -0.1111
     29 C24        -1.9965   -2.9372  -14.8333 C.ar      1 <0>        -0.1140
     30 C25        -1.6578   -2.0923  -13.7929 C.ar      1 <0>        -0.1206
     31 O2          1.4109   -2.5203  -11.3433 O.3       1 <0>        -0.5551
     32 H1         -0.5608    1.9780   -0.0614 H         1 <0>         0.1248
     33 H2         -2.1079    1.2360   -0.5350 H         1 <0>         0.1208
     34 H3         -1.6603    1.3402    1.1846 H         1 <0>         0.1048
     35 H4         -1.0826   -0.3812   -1.9999 H         1 <0>         0.1989
     36 H5          1.3017   -4.4128   -1.0104 H         1 <0>         0.1470
     37 H6          2.3344   -5.2751    1.0237 H         1 <0>         0.1566
     38 H7          2.2591   -3.9845    3.1139 H         1 <0>         0.1608
     39 H8          1.1536   -1.8172    3.2049 H         1 <0>         0.1620
     40 H9          0.1237   -3.7198   -2.4422 H         1 <0>         0.4276
     41 H10        -0.1745   -3.7395   -4.7610 H         1 <0>         0.4130
     42 H11        -1.2150   -1.4310   -6.0118 H         1 <0>         0.0991
     43 H12         0.5572   -1.4074   -6.1760 H         1 <0>         0.0991
     44 H13         0.4917   -3.6615   -7.2073 H         1 <0>         0.1405
     45 H14        -1.2805   -3.6851   -7.0430 H         1 <0>         0.1411
     46 H15         0.8676   -0.8776   -7.8604 H         1 <0>         0.1320
     47 H16         1.5318   -2.2285   -8.8092 H         1 <0>         0.1405
     48 H17        -0.3153   -0.0444   -9.8751 H         1 <0>         0.1037
     49 H18         1.4386   -0.1538  -10.1630 H         1 <0>         0.1241
     50 H19        -1.8342   -1.8808  -10.7725 H         1 <0>         0.0999
     51 H20        -1.1131   -3.2389  -11.6705 H         1 <0>         0.1229
     52 H21         0.1295   -3.9240   -9.6377 H         1 <0>         0.1362
     53 H22        -1.6231   -3.8890   -9.3319 H         1 <0>         0.1329
     54 H23        -0.7744   -0.1456  -12.2602 H         1 <0>         0.0882
     55 H24         0.9457   -0.3081  -12.6883 H         1 <0>         0.0937
     56 H25         1.6927   -2.0728  -14.1824 H         1 <0>         0.1266
     57 H26         1.0898   -3.5835  -16.0310 H         1 <0>         0.1287
     58 H27        -1.2730   -4.1366  -16.4483 H         1 <0>         0.1282
     59 H28        -3.0329   -3.1797  -15.0164 H         1 <0>         0.1267
     60 H29        -2.4294   -1.6755  -13.1626 H         1 <0>         0.1199
     61 H30         1.3198   -3.1463  -12.0746 H         1 <0>         0.3925
     62 H31        -1.3239   -1.6927   -8.4061 H         1 <0>         0.4239
     63 H32        -0.0543   -0.1491    1.9764 H         1 <0>         0.4468
@<TRIPOS>BOND
     1    1    2 1
     2    1   32 1
     3    1   33 1
     4    1   34 1
     5    2   11 ar
     6    2    3 ar
     7    3    4 ar
     8    3   35 1
     9    4    5 ar
    10    4   12 1
    11    5   10 ar
    12    5    6 ar
    13    6    7 ar
    14    6   36 1
    15    7    8 ar
    16    7   37 1
    17    8    9 ar
    18    8   38 1
    19    9   10 ar
    20    9   39 1
    21   10   11 ar
    22   11   63 1
    23   12   13 am
    24   12   40 1
    25   13   14 2
    26   13   15 am
    27   15   16 1
    28   15   41 1
    29   16   17 1
    30   16   42 1
    31   16   43 1
    32   17   18 1
    33   17   44 1
    34   17   45 1
    35   18   23 1
    36   18   19 1
    37   18   62 1
    38   19   20 1
    39   19   46 1
    40   19   47 1
    41   20   21 1
    42   20   48 1
    43   20   49 1
    44   21   22 1
    45   21   24 1
    46   21   31 1
    47   22   23 1
    48   22   50 1
    49   22   51 1
    50   23   52 1
    51   23   53 1
    52   24   25 1
    53   24   54 1
    54   24   55 1
    55   25   30 ar
    56   25   26 ar
    57   26   27 ar
    58   26   56 1
    59   27   28 ar
    60   27   57 1
    61   28   29 ar
    62   28   58 1
    63   29   30 ar
    64   29   59 1
    65   30   60 1
    66   31   61 1
@<TRIPOS>MOLECULE
ZINC34375693
   63    66     0     0     0
SMALL
USER_CHARGES

@<TRIPOS>ATOM
      1 C1         -2.8059   -3.4347    4.7830 C.3       1 <0>        -0.1524
      2 C2         -2.0415   -3.6238    3.4981 C.2       1 <0>         0.2922
      3 C3         -2.5484   -3.1054    2.3583 C.2       1 <0>        -0.2830
      4 C4         -1.8554   -3.2653    1.1374 C.2       1 <0>         0.3772
      5 C5         -0.5832   -4.0062    1.1620 C.ar      1 <0>        -0.1376
      6 C6          0.1645   -4.2090    0.0015 C.ar      1 <0>        -0.0598
      7 C7          1.3407   -4.9020    0.0670 C.ar      1 <0>        -0.1029
      8 C8          1.7969   -5.4052    1.2780 C.ar      1 <0>        -0.0203
      9 C9          1.0743   -5.2162    2.4355 C.ar      1 <0>        -0.1418
     10 C10        -0.1265   -4.5133    2.3919 C.ar      1 <0>         0.1864
     11 N1         -0.8698   -4.3022    3.5310 N.pl3     1 <0>        -0.5435
     12 N2         -2.3387   -2.7612   -0.0017 N.am      1 <0>        -0.6424
     13 C11        -3.5459   -2.1899   -0.0201 C.2       1 <0>         0.7059
     14 O1         -3.6451   -0.9763   -0.0722 O.2       1 <0>        -0.4791
     15 N3         -4.6544   -2.9555    0.0190 N.am      1 <0>        -0.7177
     16 C12        -5.9785   -2.3290   -0.0011 C.3       1 <0>         0.0984
     17 C13        -7.0567   -3.4133    0.0517 C.3       1 <0>        -0.0219
     18 N4         -8.3844   -2.7850    0.0314 N.4       1 <0>        -0.3782
     19 C14        -8.5781   -2.0950   -1.2495 C.3       1 <0>        -0.0118
     20 C15        -9.9261   -1.3710   -1.2445 C.3       1 <0>        -0.1318
     21 C16       -11.0476   -2.3933   -1.0389 C.3       1 <0>         0.1317
     22 C17       -10.7950   -3.1585    0.2633 C.3       1 <0>        -0.1779
     23 C18        -9.4147   -3.8163    0.2024 C.3       1 <0>        -0.0011
     24 C19       -12.3920   -1.6678   -0.9533 C.3       1 <0>        -0.1060
     25 C20       -13.4787   -2.6602   -0.6290 C.ar      1 <0>        -0.1065
     26 C21       -14.1496   -3.3085   -1.6490 C.ar      1 <0>        -0.1201
     27 C22       -15.1464   -4.2188   -1.3515 C.ar      1 <0>        -0.1099
     28 C23       -15.4720   -4.4812   -0.0339 C.ar      1 <0>        -0.1110
     29 C24       -14.8005   -3.8335    0.9862 C.ar      1 <0>        -0.1142
     30 C25       -13.8007   -2.9264    0.6887 C.ar      1 <0>        -0.1208
     31 O2        -11.0662   -3.3093   -2.1355 O.3       1 <0>        -0.5549
     32 H1         -2.2621   -3.9055    5.6020 H         1 <0>         0.0994
     33 H2         -2.9176   -2.3696    4.9860 H         1 <0>         0.1220
     34 H3         -3.7909   -3.8923    4.6905 H         1 <0>         0.1184
     35 H4         -3.4851   -2.5683    2.3802 H         1 <0>         0.1721
     36 H5         -0.1847   -3.8207   -0.9439 H         1 <0>         0.1465
     37 H6          1.9200   -5.0599   -0.8307 H         1 <0>         0.1577
     38 H7          2.7283   -5.9509    1.3128 H         1 <0>         0.1609
     39 H8          1.4376   -5.6118    3.3724 H         1 <0>         0.1602
     40 H9         -4.5755   -3.9214    0.0605 H         1 <0>         0.4150
     41 H10        -6.0823   -1.6711    0.8617 H         1 <0>         0.1028
     42 H11        -6.0917   -1.7482   -0.9165 H         1 <0>         0.1044
     43 H12        -6.9528   -4.0712   -0.8112 H         1 <0>         0.1416
     44 H13        -6.9434   -3.9940    0.9671 H         1 <0>         0.1404
     45 H14        -7.7774   -1.3700   -1.3959 H         1 <0>         0.1325
     46 H15        -8.5603   -2.8233   -2.0603 H         1 <0>         0.1413
     47 H16        -9.9449   -0.6422   -0.4342 H         1 <0>         0.1042
     48 H17       -10.0688   -0.8608   -2.1971 H         1 <0>         0.1251
     49 H18       -10.8318   -2.4669    1.1050 H         1 <0>         0.1000
     50 H19       -11.5587   -3.9261    0.3885 H         1 <0>         0.1231
     51 H20        -9.3791   -4.5079   -0.6393 H         1 <0>         0.1364
     52 H21        -9.2317   -4.3622    1.1280 H         1 <0>         0.1323
     53 H22       -12.3467   -0.9099   -0.1712 H         1 <0>         0.0883
     54 H23       -12.6089   -1.1909   -1.9092 H         1 <0>         0.0941
     55 H24       -13.8951   -3.1035   -2.6784 H         1 <0>         0.1268
     56 H25       -15.6710   -4.7248   -2.1485 H         1 <0>         0.1289
     57 H26       -16.2513   -5.1919    0.1985 H         1 <0>         0.1283
     58 H27       -15.0551   -4.0383    2.0155 H         1 <0>         0.1266
     59 H28       -13.2735   -2.4232    1.4857 H         1 <0>         0.1197
     60 H29       -11.7537   -3.9863   -2.0709 H         1 <0>         0.3926
     61 H30        -8.4506   -2.1167    0.7845 H         1 <0>         0.4239
     62 H31        -0.5484   -4.6508    4.3772 H         1 <0>         0.4438
     63 H32        -1.8128   -2.8101   -0.8153 H         1 <0>         0.4455
@<TRIPOS>BOND
     1    1    2 1
     2    1   32 1
     3    1   33 1
     4    1   34 1
     5    2   11 1
     6    2    3 2
     7    3    4 1
     8    3   35 1
     9    4    5 1
    10    4   12 2
    11    5   10 ar
    12    5    6 ar
    13    6    7 ar
    14    6   36 1
    15    7    8 ar
    16    7   37 1
    17    8    9 ar
    18    8   38 1
    19    9   10 ar
    20    9   39 1
    21   10   11 1
    22   11   62 1
    23   12   13 am
    24   12   63 1
    25   13   14 2
    26   13   15 am
    27   15   16 1
    28   15   40 1
    29   16   17 1
    30   16   41 1
    31   16   42 1
    32   17   18 1
    33   17   43 1
    34   17   44 1
    35   18   23 1
    36   18   19 1
    37   18   61 1
    38   19   20 1
    39   19   45 1
    40   19   46 1
    41   20   21 1
    42   20   47 1
    43   20   48 1
    44   21   22 1
    45   21   24 1
    46   21   31 1
    47   22   23 1
    48   22   49 1
    49   22   50 1
    50   23   51 1
    51   23   52 1
    52   24   25 1
    53   24   53 1
    54   24   54 1
    55   25   30 ar
    56   25   26 ar
    57   26   27 ar
    58   26   55 1
    59   27   28 ar
    60   27   56 1
    61   28   29 ar
    62   28   57 1
    63   29   30 ar
    64   29   58 1
    65   30   59 1
    66   31   60 1
@<TRIPOS>MOLECULE
ZINC29043516
   63    66     0     0     0
SMALL
USER_CHARGES
2-(3,4-dichloro-N-methyl-anilino)-1-[(2S,3S)-3-phenyl-2-(pyrrolidin-1-ylmethyl)-1-piperidyl]ethanone
@<TRIPOS>ATOM
      1 C1         -2.0653    0.1977   -5.0465 C.3       1 <0>         0.0803
      2 N1         -2.6975    0.9946   -3.9922 N.pl3     1 <0>        -0.6057
      3 C2         -1.8950    1.9302   -3.2004 C.3       1 <0>         0.1023
      4 C3         -1.3482    1.2216   -1.9879 C.2       1 <0>         0.4890
      5 O1         -1.6037    0.0505   -1.8034 O.2       1 <0>        -0.5068
      6 N2         -0.5753    1.8894   -1.1086 N.am      1 <0>        -0.6269
      7 C4         -0.2567    3.3082   -1.3188 C.3       1 <0>         0.0919
      8 C5          1.2643    3.4844   -1.2702 C.3       1 <0>        -0.1405
      9 C6          1.7989    2.9079    0.0429 C.3       1 <0>        -0.1201
     10 C7          1.4835    1.4119    0.1111 C.3       1 <0>        -0.0451
     11 H1          1.9507    0.8907   -0.7375 H         1 <0>         0.1021
     12 C8         -0.0350    1.2122    0.0781 C.3       1 <0>         0.1281
     13 H2         -0.2918    0.1455   -0.0011 H         1 <0>         0.1257
     14 C9         -0.6584    1.8093    1.3413 C.3       1 <0>        -0.0321
     15 N3         -2.1158    1.6298    1.3000 N.4       1 <0>        -0.4061
     16 C10        -2.4703    0.2093    1.0497 C.3       1 <0>        -0.0241
     17 C11        -3.9323    0.1146    1.5538 C.3       1 <0>        -0.1399
     18 C12        -3.9282    1.0295    2.7999 C.3       1 <0>        -0.1413
     19 C13        -2.7295    1.9754    2.6005 C.3       1 <0>        -0.0012
     20 C14         2.0385    0.8386    1.3895 C.ar      1 <0>        -0.0984
     21 C15         1.9429    1.5557    2.5674 C.ar      1 <0>        -0.1319
     22 C16         2.4473    1.0275    3.7410 C.ar      1 <0>        -0.1144
     23 C17         3.0571   -0.2130    3.7347 C.ar      1 <0>        -0.1103
     24 C18         3.1579   -0.9276    2.5557 C.ar      1 <0>        -0.1083
     25 C19         2.6484   -0.4019    1.3831 C.ar      1 <0>        -0.1076
     26 C20        -4.0659    0.8624   -3.7419 C.ar      1 <0>         0.2376
     27 C21        -4.6654    1.6134   -2.7387 C.ar      1 <0>        -0.1929
     28 C22        -6.0190    1.4855   -2.4967 C.ar      1 <0>        -0.0494
     29 C23        -6.7766    0.6014   -3.2446 C.ar      1 <0>        -0.0866
     30 C24        -6.1811   -0.1526   -4.2418 C.ar      1 <0>         0.0232
     31 C25        -4.8276   -0.0240   -4.4917 C.ar      1 <0>        -0.1737
     32 Cl1        -7.1348   -1.2603   -5.1784 Cl        1 <0>        -0.0356
     33 Cl2        -8.4764    0.4376   -2.9324 Cl        1 <0>        -0.0473
     34 H3         -2.8214   -0.4408   -5.5267 H         1 <0>         0.0872
     35 H4         -1.2782   -0.4329   -4.6074 H         1 <0>         0.0633
     36 H5         -1.6217    0.8685   -5.7970 H         1 <0>         0.0661
     37 H6         -1.0618    2.3070   -3.8117 H         1 <0>         0.1193
     38 H7         -2.5248    2.7731   -2.8796 H         1 <0>         0.1131
     39 H8         -0.6381    3.6282   -2.2997 H         1 <0>         0.1003
     40 H9         -0.7274    3.9108   -0.5280 H         1 <0>         0.0747
     41 H10         1.7221    2.9543   -2.1184 H         1 <0>         0.0791
     42 H11         1.5116    4.5546   -1.3301 H         1 <0>         0.0916
     43 H12         2.8879    3.0550    0.0914 H         1 <0>         0.0858
     44 H13         1.3214    3.4217    0.8903 H         1 <0>         0.0685
     45 H14        -0.2512    1.2999    2.2271 H         1 <0>         0.1459
     46 H15        -0.4225    2.8824    1.3946 H         1 <0>         0.1346
     47 H16        -2.3808   -0.0070   -0.0251 H         1 <0>         0.1518
     48 H17        -1.7877   -0.4438    1.6132 H         1 <0>         0.1262
     49 H18        -4.6148    0.4717    0.7685 H         1 <0>         0.0964
     50 H19        -4.1691   -0.9316    1.7974 H         1 <0>         0.1146
     51 H20        -4.8770    1.5837    2.8510 H         1 <0>         0.1062
     52 H21        -3.8131    0.4155    3.7053 H         1 <0>         0.1046
     53 H22        -1.9896    1.8389    3.4029 H         1 <0>         0.1287
     54 H23        -3.0613    3.0240    2.5823 H         1 <0>         0.1300
     55 H24         1.4704    2.5269    2.5715 H         1 <0>         0.1208
     56 H25         2.3683    1.5857    4.6622 H         1 <0>         0.1269
     57 H26         3.4546   -0.6240    4.6509 H         1 <0>         0.1282
     58 H27         3.6343   -1.8968    2.5507 H         1 <0>         0.1289
     59 H28         2.7271   -0.9603    0.4620 H         1 <0>         0.1248
     60 H29        -4.0740    2.3000   -2.1510 H         1 <0>         0.1231
     61 H30        -6.4860    2.0726   -1.7198 H         1 <0>         0.1409
     62 H31        -4.3632   -0.6120   -5.2695 H         1 <0>         0.1470
     63 H32        -2.4760    2.2890    0.4964 H         1 <0>         0.4374
@<TRIPOS>BOND
     1    1    2 1
     2    1   34 1
     3    1   35 1
     4    1   36 1
     5    2    3 1
     6    2   26 1
     7    3    4 1
     8    3   37 1
     9    3   38 1
    10    4    5 2
    11    4    6 am
    12    6   12 1
    13    6    7 1
    14    7    8 1
    15    7   39 1
    16    7   40 1
    17    8    9 1
    18    8   41 1
    19    8   42 1
    20    9   10 1
    21    9   43 1
    22    9   44 1
    23   10   11 1
    24   10   12 1
    25   10   20 1
    26   12   13 1
    27   12   14 1
    28   14   15 1
    29   14   45 1
    30   14   46 1
    31   15   19 1
    32   15   16 1
    33   15   63 1
    34   16   17 1
    35   16   47 1
    36   16   48 1
    37   17   18 1
    38   17   49 1
    39   17   50 1
    40   18   19 1
    41   18   51 1
    42   18   52 1
    43   19   53 1
    44   19   54 1
    45   20   25 ar
    46   20   21 ar
    47   21   22 ar
    48   21   55 1
    49   22   23 ar
    50   22   56 1
    51   23   24 ar
    52   23   57 1
    53   24   25 ar
    54   24   58 1
    55   25   59 1
    56   26   31 ar
    57   26   27 ar
    58   27   28 ar
    59   27   60 1
    60   28   29 ar
    61   28   61 1
    62   29   30 ar
    63   29   33 1
    64   30   31 ar
    65   30   32 1
    66   31   62 1
@<TRIPOS>MOLECULE
ZINC29042667
   63    66     0     0     0
SMALL
USER_CHARGES
2-(3,4-dichloro-N-methyl-anilino)-1-[(2R,3R)-3-phenyl-2-(pyrrolidin-1-ylmethyl)-1-piperidyl]ethanone
@<TRIPOS>ATOM
      1 C1          6.0480   -0.8308   -1.6151 C.3       1 <0>         0.0850
      2 N1          6.0173    0.5674   -1.1791 N.pl3     1 <0>        -0.6090
      3 C2          5.0477    0.9987   -0.1691 C.3       1 <0>         0.0991
      4 C3          3.7795    1.4462   -0.8491 C.2       1 <0>         0.4870
      5 O1          3.6940    1.4085   -2.0583 O.2       1 <0>        -0.5074
      6 N2          2.7402    1.8882   -0.1135 N.am      1 <0>        -0.6264
      7 C4          2.8286    1.9392    1.3522 C.3       1 <0>         0.0920
      8 C5          2.4741    3.3547    1.8185 C.3       1 <0>        -0.1413
      9 C6          1.1047    3.7444    1.2574 C.3       1 <0>        -0.1187
     10 C7          1.1578    3.7389   -0.2720 C.3       1 <0>        -0.0445
     11 H1          1.9171    4.4529   -0.6237 H         1 <0>         0.1034
     12 C8          1.4973    2.3277   -0.7621 C.3       1 <0>         0.1310
     13 H2          1.6652    2.3173   -1.8492 H         1 <0>         0.1242
     14 C9          0.3614    1.3704   -0.3958 C.3       1 <0>        -0.0358
     15 N3          0.6419    0.0411   -0.9546 N.4       1 <0>        -0.4068
     16 C10         1.7147   -0.6428   -0.1881 C.3       1 <0>        -0.0072
     17 C11         1.5084   -2.1363   -0.5451 C.3       1 <0>        -0.1430
     18 C12        -0.0306   -2.2665   -0.6115 C.3       1 <0>        -0.1406
     19 C13        -0.5450   -0.8360   -0.8573 C.3       1 <0>        -0.0013
     20 C14        -0.1819    4.1541   -0.8234 C.ar      1 <0>        -0.0967
     21 C15        -1.3435    3.6461   -0.2725 C.ar      1 <0>        -0.1353
     22 C16        -2.5725    4.0300   -0.7756 C.ar      1 <0>        -0.1136
     23 C17        -2.6396    4.9151   -1.8353 C.ar      1 <0>        -0.1106
     24 C18        -1.4778    5.4193   -2.3893 C.ar      1 <0>        -0.1068
     25 C19        -0.2490    5.0385   -1.8836 C.ar      1 <0>        -0.1064
     26 C20         6.9130    1.4898   -1.7265 C.ar      1 <0>         0.2304
     27 C21         7.8330    1.0821   -2.6843 C.ar      1 <0>        -0.1738
     28 C22         8.7173    1.9952   -3.2240 C.ar      1 <0>        -0.0467
     29 C23         8.6884    3.3157   -2.8115 C.ar      1 <0>        -0.0818
     30 C24         7.7727    3.7255   -1.8570 C.ar      1 <0>         0.0184
     31 C25         6.8812    2.8166   -1.3182 C.ar      1 <0>        -0.1789
     32 Cl1         7.7394    5.3830   -1.3420 Cl        1 <0>        -0.0427
     33 Cl2         9.8024    4.4605   -3.4914 Cl        1 <0>        -0.0467
     34 H3          6.8357   -0.9617   -2.3716 H         1 <0>         0.0893
     35 H4          5.0741   -1.1009   -2.0493 H         1 <0>         0.0553
     36 H5          6.2572   -1.4796   -0.7518 H         1 <0>         0.0635
     37 H6          4.8250    0.1601    0.5070 H         1 <0>         0.1126
     38 H7          5.4681    1.8345    0.4095 H         1 <0>         0.1166
     39 H8          2.1236    1.2156    1.7874 H         1 <0>         0.0732
     40 H9          3.8524    1.6883    1.6668 H         1 <0>         0.0991
     41 H10         2.4427    3.3815    2.9177 H         1 <0>         0.0914
     42 H11         3.2351    4.0615    1.4561 H         1 <0>         0.0801
     43 H12         0.3490    3.0222    1.6000 H         1 <0>         0.0674
     44 H13         0.8366    4.7510    1.6108 H         1 <0>         0.0859
     45 H14         0.2812    1.2985    0.6989 H         1 <0>         0.1315
     46 H15        -0.5851    1.7494   -0.8087 H         1 <0>         0.1524
     47 H16         2.6953   -0.2641   -0.5122 H         1 <0>         0.1227
     48 H17         1.5817   -0.4444    0.8857 H         1 <0>         0.1276
     49 H18         1.9936   -2.3535   -1.5081 H         1 <0>         0.0967
     50 H19         1.9531   -2.7657    0.2398 H         1 <0>         0.1148
     51 H20        -0.3062   -2.9427   -1.4342 H         1 <0>         0.1067
     52 H21        -0.4055   -2.6737    0.3391 H         1 <0>         0.1049
     53 H22        -1.1796   -0.5029   -0.0228 H         1 <0>         0.1283
     54 H23        -1.1166   -0.7849   -1.7957 H         1 <0>         0.1319
     55 H24        -1.2910    2.9517    0.5530 H         1 <0>         0.1204
     56 H25        -3.4801    3.6357   -0.3430 H         1 <0>         0.1268
     57 H26        -3.5997    5.2124   -2.2306 H         1 <0>         0.1283
     58 H27        -1.5302    6.1106   -3.2175 H         1 <0>         0.1292
     59 H28         0.6587    5.4321   -2.3167 H         1 <0>         0.1257
     60 H29         7.8568    0.0515   -3.0064 H         1 <0>         0.1418
     61 H30         9.4325    1.6782   -3.9686 H         1 <0>         0.1466
     62 H31         6.1641    3.1371   -0.5770 H         1 <0>         0.1318
     63 H32         0.9324    0.2117   -2.0018 H         1 <0>         0.4491
@<TRIPOS>BOND
     1    1    2 1
     2    1   34 1
     3    1   35 1
     4    1   36 1
     5    2    3 1
     6    2   26 1
     7    3    4 1
     8    3   37 1
     9    3   38 1
    10    4    5 2
    11    4    6 am
    12    6   12 1
    13    6    7 1
    14    7    8 1
    15    7   39 1
    16    7   40 1
    17    8    9 1
    18    8   41 1
    19    8   42 1
    20    9   10 1
    21    9   43 1
    22    9   44 1
    23   10   11 1
    24   10   12 1
    25   10   20 1
    26   12   13 1
    27   12   14 1
    28   14   15 1
    29   14   45 1
    30   14   46 1
    31   15   19 1
    32   15   16 1
    33   15   63 1
    34   16   17 1
    35   16   47 1
    36   16   48 1
    37   17   18 1
    38   17   49 1
    39   17   50 1
    40   18   19 1
    41   18   51 1
    42   18   52 1
    43   19   53 1
    44   19   54 1
    45   20   25 ar
    46   20   21 ar
    47   21   22 ar
    48   21   55 1
    49   22   23 ar
    50   22   56 1
    51   23   24 ar
    52   23   57 1
    53   24   25 ar
    54   24   58 1
    55   25   59 1
    56   26   31 ar
    57   26   27 ar
    58   27   28 ar
    59   27   60 1
    60   28   29 ar
    61   28   61 1
    62   29   30 ar
    63   29   33 1
    64   30   31 ar
    65   30   32 1
    66   31   62 1
@<TRIPOS>MOLECULE
ZINC29043859
   63    66     0     0     0
SMALL
USER_CHARGES
2-(3,4-dichloro-N-methyl-anilino)-1-[(2R,3S)-3-phenyl-2-(pyrrolidin-1-ylmethyl)-1-piperidyl]ethanone
@<TRIPOS>ATOM
      1 C1         -7.7433    6.0121   -3.6413 C.3       1 <0>         0.0836
      2 N1         -6.7102    6.6842   -2.8494 N.pl3     1 <0>        -0.6077
      3 C2         -6.2391    6.0836   -1.5990 C.3       1 <0>         0.1014
      4 C3         -4.9953    5.2760   -1.8670 C.2       1 <0>         0.5000
      5 O1         -4.4997    5.2750   -2.9740 O.2       1 <0>        -0.5230
      6 N2         -4.4335    4.5549   -0.8766 N.am      1 <0>        -0.6063
      7 C4         -5.0798    4.4600    0.4395 C.3       1 <0>         0.0992
      8 C5         -4.0697    4.8707    1.5156 C.3       1 <0>        -0.1417
      9 C6         -2.8051    4.0205    1.3735 C.3       1 <0>        -0.1120
     10 C7         -2.1749    4.2659    0.0007 C.3       1 <0>        -0.0758
     11 H1         -1.9180    5.3298   -0.1096 H         1 <0>         0.1007
     12 C8         -3.1636    3.8484   -1.0926 C.3       1 <0>         0.1378
     13 H2         -3.3695    2.7688   -1.0472 H         1 <0>         0.0958
     14 C9         -2.5974    4.2189   -2.4648 C.3       1 <0>        -0.0133
     15 N3         -1.3608    3.4632   -2.7046 N.4       1 <0>        -0.4321
     16 C10        -1.6216    2.0009   -2.7021 C.3       1 <0>        -0.0176
     17 C11        -0.4033    1.4222   -3.4645 C.3       1 <0>        -0.1412
     18 C12        -0.1505    2.4783   -4.5648 C.3       1 <0>        -0.1385
     19 C13        -0.8020    3.7708   -4.0390 C.3       1 <0>         0.0008
     20 C14        -0.9124    3.4528   -0.1258 C.ar      1 <0>        -0.1031
     21 C15        -0.9228    2.1067    0.1882 C.ar      1 <0>        -0.1233
     22 C16         0.2367    1.3622    0.0777 C.ar      1 <0>        -0.0897
     23 C17         1.4040    1.9614   -0.3573 C.ar      1 <0>        -0.1088
     24 C18         1.4131    3.3063   -0.6767 C.ar      1 <0>        -0.0929
     25 C19         0.2548    4.0520   -0.5612 C.ar      1 <0>        -0.1702
     26 C20        -6.1741    7.8983   -3.2868 C.ar      1 <0>         0.2369
     27 C21        -6.6200    8.4689   -4.4724 C.ar      1 <0>        -0.1759
     28 C22        -6.0888    9.6688   -4.9028 C.ar      1 <0>        -0.0460
     29 C23        -5.1126   10.3031   -4.1549 C.ar      1 <0>        -0.0853
     30 C24        -4.6659    9.7371   -2.9727 C.ar      1 <0>         0.0181
     31 C25        -5.1988    8.5392   -2.5343 C.ar      1 <0>        -0.1804
     32 Cl1        -3.4411   10.5358   -2.0369 Cl        1 <0>        -0.0471
     33 Cl2        -4.4464   11.8107   -4.6998 Cl        1 <0>        -0.0493
     34 H3         -7.9646    6.6096   -4.5379 H         1 <0>         0.0878
     35 H4         -8.6564    5.9050   -3.0374 H         1 <0>         0.0654
     36 H5         -7.3845    5.0170   -3.9431 H         1 <0>         0.0589
     37 H6         -6.0110    6.8784   -0.8736 H         1 <0>         0.1140
     38 H7         -7.0214    5.4273   -1.1899 H         1 <0>         0.1178
     39 H8         -5.9506    5.1315    0.4696 H         1 <0>         0.0992
     40 H9         -5.4089    3.4248    0.6126 H         1 <0>         0.0847
     41 H10        -3.8145    5.9336    1.3924 H         1 <0>         0.0769
     42 H11        -4.5098    4.7123    2.5112 H         1 <0>         0.0948
     43 H12        -2.0875    4.2963    2.1603 H         1 <0>         0.0843
     44 H13        -3.0657    2.9563    1.4717 H         1 <0>         0.0759
     45 H14        -3.3341    3.9733   -3.2439 H         1 <0>         0.1633
     46 H15        -2.3797    5.2968   -2.4928 H         1 <0>         0.1279
     47 H16        -1.6787    1.6404   -1.6644 H         1 <0>         0.1267
     48 H17        -2.5738    1.7974   -3.2139 H         1 <0>         0.1238
     49 H18         0.4463    1.3189   -2.7735 H         1 <0>         0.0922
     50 H19        -0.6631    0.4358   -3.8761 H         1 <0>         0.1126
     51 H20         0.9325    2.6020   -4.7124 H         1 <0>         0.1027
     52 H21        -0.6131    2.1456   -5.5057 H         1 <0>         0.1035
     53 H22        -1.6110    4.0980   -4.7087 H         1 <0>         0.1259
     54 H23        -0.0547    4.5728   -3.9476 H         1 <0>         0.1218
     55 H24        -1.8358    1.6375    0.5238 H         1 <0>         0.1400
     56 H25         0.2296    0.3114    0.3270 H         1 <0>         0.1421
     57 H26         2.3089    1.3788   -0.4479 H         1 <0>         0.1415
     58 H27         2.3250    3.7744   -1.0169 H         1 <0>         0.1427
     59 H28         0.2619    5.1027   -0.8108 H         1 <0>         0.1419
     60 H29        -7.3813    7.9743   -5.0572 H         1 <0>         0.1421
     61 H30        -6.4355   10.1124   -5.8245 H         1 <0>         0.1457
     62 H31        -4.8536    8.1000   -1.6100 H         1 <0>         0.1304
     63 H32        -0.6699    3.7569   -1.9007 H         1 <0>         0.4203
@<TRIPOS>BOND
     1    1    2 1
     2    1   34 1
     3    1   35 1
     4    1   36 1
     5    2    3 1
     6    2   26 1
     7    3    4 1
     8    3   37 1
     9    3   38 1
    10    4    5 2
    11    4    6 am
    12    6   12 1
    13    6    7 1
    14    7    8 1
    15    7   39 1
    16    7   40 1
    17    8    9 1
    18    8   41 1
    19    8   42 1
    20    9   10 1
    21    9   43 1
    22    9   44 1
    23   10   11 1
    24   10   12 1
    25   10   20 1
    26   12   13 1
    27   12   14 1
    28   14   15 1
    29   14   45 1
    30   14   46 1
    31   15   19 1
    32   15   16 1
    33   15   63 1
    34   16   17 1
    35   16   47 1
    36   16   48 1
    37   17   18 1
    38   17   49 1
    39   17   50 1
    40   18   19 1
    41   18   51 1
    42   18   52 1
    43   19   53 1
    44   19   54 1
    45   20   25 ar
    46   20   21 ar
    47   21   22 ar
    48   21   55 1
    49   22   23 ar
    50   22   56 1
    51   23   24 ar
    52   23   57 1
    53   24   25 ar
    54   24   58 1
    55   25   59 1
    56   26   31 ar
    57   26   27 ar
    58   27   28 ar
    59   27   60 1
    60   28   29 ar
    61   28   61 1
    62   29   30 ar
    63   29   33 1
    64   30   31 ar
    65   30   32 1
    66   31   62 1
@<TRIPOS>MOLECULE
ZINC03964101
   61    63     0     0     0
SMALL
USER_CHARGES

@<TRIPOS>ATOM
      1 C1         -0.0178    1.4648    0.0101 C.3       1 <0>        -0.0550
      2 N1          0.0021   -0.0041    0.0020 N.4       1 <0>        -0.3861
      3 C2         -1.3761   -0.5125    0.0124 C.3       1 <0>        -0.0483
      4 C3          0.6897   -0.4778   -1.2066 C.3       1 <0>        -0.0066
      5 C4          2.1588   -0.0534   -1.1571 C.3       1 <0>        -0.1540
      6 C5          2.8749   -0.5468   -2.4159 C.3       1 <0>         0.0606
      7 O1          4.2470   -0.1503   -2.3696 O.3       1 <0>        -0.3055
      8 C6          5.0295   -0.5121   -3.4202 C.ar      1 <0>         0.1621
      9 C7          4.4865   -1.2289   -4.4766 C.ar      1 <0>        -0.2076
     10 C8          5.2839   -1.5951   -5.5436 C.ar      1 <0>        -0.0486
     11 C9          6.6223   -1.2482   -5.5590 C.ar      1 <0>        -0.1942
     12 C10         7.1660   -0.5343   -4.5071 C.ar      1 <0>        -0.0477
     13 C11         6.3714   -0.1604   -3.4407 C.ar      1 <0>        -0.1434
     14 C12         7.4900   -1.6494   -6.7240 C.3       1 <0>         0.0527
     15 N2          7.4572   -0.5940   -7.7453 N.4       1 <0>        -0.3935
     16 C13         6.1256   -0.5479   -8.4023 C.3       1 <0>        -0.0035
     17 C14         6.3836    0.1475   -9.7562 C.3       1 <0>        -0.1623
     18 C15         7.8789   -0.0911  -10.0508 C.3       1 <0>         0.1314
     19 H1          8.4080    0.8596  -10.1176 H         1 <0>         0.1289
     20 C16         8.3985   -0.9106   -8.8501 C.3       1 <0>        -0.0126
     21 N3          8.0379   -0.8494  -11.2941 N.am      1 <0>        -0.7277
     22 C17         8.0796   -0.2039  -12.4765 C.2       1 <0>         0.5745
     23 O2          7.9852    1.0075  -12.5113 O.2       1 <0>        -0.5086
     24 C18         8.2399   -0.9690  -13.7307 C.ar      1 <0>        -0.1356
     25 C19         8.3428   -2.3610  -13.6943 C.ar      1 <0>        -0.0711
     26 C20         8.4923   -3.0700  -14.8674 C.ar      1 <0>        -0.1038
     27 C21         8.5411   -2.4043  -16.0810 C.ar      1 <0>        -0.0014
     28 C22         8.4396   -1.0228  -16.1243 C.ar      1 <0>        -0.0402
     29 C23         8.2834   -0.3031  -14.9568 C.ar      1 <0>        -0.0339
     30 Cl1         8.5018   -0.1966  -17.6498 Cl        1 <0>        -0.0217
     31 Cl2         8.7307   -3.3039  -17.5536 Cl        1 <0>        -0.0211
     32 H2          1.0047    1.8421    0.0024 H         1 <0>         0.1243
     33 H3         -0.5450    1.8259   -0.8730 H         1 <0>         0.1241
     34 H4         -0.5280    1.8163    0.9069 H         1 <0>         0.1292
     35 H5         -1.9033   -0.1515   -0.8706 H         1 <0>         0.1236
     36 H6         -1.3613   -1.6024    0.0065 H         1 <0>         0.1253
     37 H7         -1.8863   -0.1610    0.9092 H         1 <0>         0.1292
     38 H8          0.6270   -1.5648   -1.2578 H         1 <0>         0.1353
     39 H9          0.2158   -0.0447   -2.0875 H         1 <0>         0.1338
     40 H10         2.2214    1.0336   -1.1059 H         1 <0>         0.1022
     41 H11         2.6326   -0.4865   -0.2761 H         1 <0>         0.1024
     42 H12         2.8123   -1.6338   -2.4670 H         1 <0>         0.0780
     43 H13         2.4011   -0.1137   -3.2968 H         1 <0>         0.0769
     44 H14         3.4413   -1.5007   -4.4647 H         1 <0>         0.1378
     45 H15         4.8617   -2.1531   -6.3662 H         1 <0>         0.1354
     46 H16         8.2117   -0.2648   -4.5213 H         1 <0>         0.1430
     47 H17         6.7955    0.4011   -2.6214 H         1 <0>         0.1460
     48 H18         8.5149   -1.7919   -6.3815 H         1 <0>         0.1398
     49 H19         7.1170   -2.5802   -7.1513 H         1 <0>         0.1362
     50 H20         5.7443   -1.5568   -8.5598 H         1 <0>         0.1327
     51 H21         5.4259    0.0346   -7.8029 H         1 <0>         0.1337
     52 H22         5.7679   -0.3011  -10.5357 H         1 <0>         0.1176
     53 H23         6.1788    1.2153   -9.6784 H         1 <0>         0.1100
     54 H24         9.4103   -0.6012   -8.5879 H         1 <0>         0.1488
     55 H25         8.3729   -1.9763   -9.0776 H         1 <0>         0.1394
     56 H26         8.1132   -1.8161  -11.2663 H         1 <0>         0.4072
     57 H27         8.3056   -2.8815  -12.7487 H         1 <0>         0.1382
     58 H28         8.5719   -4.1467  -14.8398 H         1 <0>         0.1545
     59 H29         8.1999    0.7731  -14.9914 H         1 <0>         0.1588
     60 H30         7.6817    0.3004   -7.3358 H         1 <0>         0.4308
     61 H31         0.4901   -0.3383    0.8195 H         1 <0>         0.4299
@<TRIPOS>BOND
     1    1    2 1
     2    1   32 1
     3    1   33 1
     4    1   34 1
     5    2    3 1
     6    2    4 1
     7    2   61 1
     8    3   35 1
     9    3   36 1
    10    3   37 1
    11    4    5 1
    12    4   38 1
    13    4   39 1
    14    5    6 1
    15    5   40 1
    16    5   41 1
    17    6    7 1
    18    6   42 1
    19    6   43 1
    20    7    8 1
    21    8   13 ar
    22    8    9 ar
    23    9   10 ar
    24    9   44 1
    25   10   11 ar
    26   10   45 1
    27   11   12 ar
    28   11   14 1
    29   12   13 ar
    30   12   46 1
    31   13   47 1
    32   14   15 1
    33   14   48 1
    34   14   49 1
    35   15   20 1
    36   15   16 1
    37   15   60 1
    38   16   17 1
    39   16   50 1
    40   16   51 1
    41   17   18 1
    42   17   52 1
    43   17   53 1
    44   18   19 1
    45   18   20 1
    46   18   21 1
    47   20   54 1
    48   20   55 1
    49   21   22 am
    50   21   56 1
    51   22   23 2
    52   22   24 1
    53   24   29 ar
    54   24   25 ar
    55   25   26 ar
    56   25   57 1
    57   26   27 ar
    58   26   58 1
    59   27   28 ar
    60   27   31 1
    61   28   29 ar
    62   28   30 1
    63   29   59 1
@<TRIPOS>MOLECULE
ZINC00607289
   51    53     0     0     0
SMALL
USER_CHARGES

@<TRIPOS>ATOM
      1 C1         -0.5664    1.5629    0.4635 C.3       1 <0>         0.0474
      2 N1         -0.1670    0.1850    0.1670 N.am      1 <0>        -0.6317
      3 C2          0.1346   -0.7418    1.2608 C.3       1 <0>         0.1670
      4 H1          0.3080   -1.7385    0.8551 H         1 <0>         0.1306
      5 C3         -1.0461   -0.7851    2.2328 C.3       1 <0>        -0.0144
      6 N2         -2.2724   -1.1246    1.4987 N.4       1 <0>        -0.3941
      7 C4         -2.2123   -2.5306    1.0236 C.3       1 <0>        -0.0119
      8 C5         -3.7022   -2.8948    0.8044 C.3       1 <0>        -0.1435
      9 C6         -4.4102   -2.1731    1.9740 C.3       1 <0>        -0.1441
     10 C7         -3.4428   -1.0534    2.4003 C.3       1 <0>        -0.0096
     11 C8          1.3682   -0.2744    1.9894 C.ar      1 <0>        -0.1208
     12 C9          2.4253   -1.1431    2.1866 C.ar      1 <0>        -0.0945
     13 C10         3.5568   -0.7144    2.8549 C.ar      1 <0>        -0.1121
     14 C11         3.6315    0.5831    3.3257 C.ar      1 <0>        -0.0981
     15 C12         2.5748    1.4521    3.1278 C.ar      1 <0>        -0.1150
     16 C13         1.4450    1.0247    2.4556 C.ar      1 <0>        -0.1155
     17 C14        -0.0770   -0.2301   -1.1121 C.2       1 <0>         0.5159
     18 O1          0.2537   -1.3709   -1.3576 O.2       1 <0>        -0.5053
     19 C15        -0.3872    0.7232   -2.2373 C.3       1 <0>        -0.0992
     20 C16        -0.2122    0.0167   -3.5569 C.ar      1 <0>        -0.0669
     21 C17         1.0177    0.0272   -4.1884 C.ar      1 <0>        -0.0850
     22 C18         1.1794   -0.6199   -5.3989 C.ar      1 <0>        -0.0926
     23 C19         0.1104   -1.2790   -5.9791 C.ar      1 <0>        -0.0255
     24 C20        -1.1210   -1.2899   -5.3465 C.ar      1 <0>        -0.0302
     25 C21        -1.2798   -0.6460   -4.1324 C.ar      1 <0>        -0.0867
     26 Cl1        -2.4636   -2.1160   -6.0736 Cl        1 <0>        -0.0403
     27 Cl2         0.3128   -2.0915   -7.4998 Cl        1 <0>        -0.0362
     28 H2          0.3232    2.1757    0.6094 H         1 <0>         0.0828
     29 H3         -1.1484    1.9595   -0.3684 H         1 <0>         0.0929
     30 H4         -1.1712    1.5788    1.3702 H         1 <0>         0.0716
     31 H5         -0.8598   -1.5392    2.9974 H         1 <0>         0.1466
     32 H6         -1.1637    0.1902    2.7052 H         1 <0>         0.1350
     33 H7         -1.6583   -2.5969    0.0872 H         1 <0>         0.1371
     34 H8         -1.7665   -3.1742    1.7819 H         1 <0>         0.1363
     35 H9         -4.0553   -2.5142   -0.1540 H         1 <0>         0.0971
     36 H10        -3.8495   -3.9728    0.8705 H         1 <0>         0.1186
     37 H11        -5.3565   -1.7483    1.6391 H         1 <0>         0.1058
     38 H12        -4.5762   -2.8645    2.8001 H         1 <0>         0.1055
     39 H13        -3.1268   -1.2085    3.4319 H         1 <0>         0.1328
     40 H14        -3.9301   -0.0836    2.3002 H         1 <0>         0.1316
     41 H15         2.3669   -2.1569    1.8188 H         1 <0>         0.1266
     42 H16         4.3823   -1.3934    3.0096 H         1 <0>         0.1316
     43 H17         4.5152    0.9179    3.8485 H         1 <0>         0.1308
     44 H18         2.6330    2.4658    3.4959 H         1 <0>         0.1300
     45 H19         0.6210    1.7047    2.2977 H         1 <0>         0.1272
     46 H20        -1.4160    1.0714   -2.1452 H         1 <0>         0.1115
     47 H21         0.2905    1.5754   -2.1887 H         1 <0>         0.1174
     48 H22         1.8525    0.5417   -3.7357 H         1 <0>         0.1373
     49 H23         2.1402   -0.6107   -5.8920 H         1 <0>         0.1475
     50 H24        -2.2391   -0.6575   -3.6364 H         1 <0>         0.1369
     51 H25        -2.3960   -0.4975    0.7180 H         1 <0>         0.4215
@<TRIPOS>BOND
     1    1    2 1
     2    1   28 1
     3    1   29 1
     4    1   30 1
     5    2    3 1
     6    2   17 am
     7    3    4 1
     8    3    5 1
     9    3   11 1
    10    5    6 1
    11    5   31 1
    12    5   32 1
    13    6   10 1
    14    6    7 1
    15    6   51 1
    16    7    8 1
    17    7   33 1
    18    7   34 1
    19    8    9 1
    20    8   35 1
    21    8   36 1
    22    9   10 1
    23    9   37 1
    24    9   38 1
    25   10   39 1
    26   10   40 1
    27   11   16 ar
    28   11   12 ar
    29   12   13 ar
    30   12   41 1
    31   13   14 ar
    32   13   42 1
    33   14   15 ar
    34   14   43 1
    35   15   16 ar
    36   15   44 1
    37   16   45 1
    38   17   18 2
    39   17   19 1
    40   19   20 1
    41   19   46 1
    42   19   47 1
    43   20   25 ar
    44   20   21 ar
    45   21   22 ar
    46   21   48 1
    47   22   23 ar
    48   22   49 1
    49   23   24 ar
    50   23   27 1
    51   24   25 ar
    52   24   26 1
    53   25   50 1
