@<TRIPOS>MOLECULE
ZINC01442764
   24    25     0     0     0
SMALL
USER_CHARGES
naphthalene-2-carboxamidine
@<TRIPOS>ATOM
      1 C1         -3.1410   -0.6575    0.0279 C.ar      1 <0>        -0.0776
      2 C2         -2.6965   -1.9784    0.0163 C.ar      1 <0>        -0.1013
      3 C3         -1.3672   -2.2695    0.0023 C.ar      1 <0>        -0.0968
      4 C4         -0.4258   -1.2247   -0.0011 C.ar      1 <0>        -0.0668
      5 C5          0.9522   -1.4896   -0.0149 C.ar      1 <0>        -0.0163
      6 C6          1.8477   -0.4351   -0.0173 C.ar      1 <0>        -0.1551
      7 C7          1.3873    0.8928   -0.0059 C.ar      1 <0>        -0.0953
      8 C8          0.0582    1.1688    0.0071 C.ar      1 <0>        -0.0786
      9 C9         -0.8783    0.1190    0.0103 C.ar      1 <0>        -0.0140
     10 C10        -2.2588    0.3792    0.0305 C.ar      1 <0>        -0.1149
     11 C11         3.3027   -0.7075   -0.0324 C.cat     1 <0>         0.5994
     12 N1          4.1996    0.3386   -0.0348 N.pl3     1 <0>        -0.7797
     13 H1         -4.2015   -0.4534    0.0396 H         1 <0>         0.1391
     14 H2         -3.4174   -2.7825    0.0188 H         1 <0>         0.1387
     15 H3         -1.0369   -3.2977   -0.0060 H         1 <0>         0.1392
     16 H4          1.3107   -2.5083   -0.0241 H         1 <0>         0.1398
     17 H5          2.1002    1.7041   -0.0080 H         1 <0>         0.1350
     18 H6         -0.2804    2.1944    0.0153 H         1 <0>         0.1490
     19 H7         -2.6187    1.3975    0.0397 H         1 <0>         0.1421
     20 H8          4.6694   -2.2166   -0.0536 H         1 <0>         0.4443
     21 H9          3.8775    1.2535   -0.0266 H         1 <0>         0.4434
     22 H10         5.1529    0.1600   -0.0446 H         1 <0>         0.4308
     23 N2          3.6777   -1.9777   -0.0431 N.pl3     1 <0>        -0.7631
     24 H11         2.9703   -2.7219   -0.0409 H         1 <0>         0.4587
@<TRIPOS>BOND
     1    1   10 ar
     2    1    2 ar
     3    1   13 1
     4    2    3 ar
     5    2   14 1
     6    3    4 ar
     7    3   15 1
     8    4    9 ar
     9    4    5 ar
    10    5    6 ar
    11    5   16 1
    12    6    7 ar
    13    6   11 1
    14    7    8 ar
    15    7   17 1
    16    8    9 ar
    17    8   18 1
    18    9   10 ar
    19   10   19 1
    20   11   12 1
    21   11   23 2
    22   12   21 1
    23   12   22 1
    24   20   23 1
    25   23   24 1
@<TRIPOS>MOLECULE
ZINC03960057
   36    38     0     0     0
SMALL
USER_CHARGES
3-(4-chloro-1-guanidino-7-isoquinolyl)benzoic acid
@<TRIPOS>ATOM
      1 C1          2.4290    4.1691   -0.1398 C.ar      1 <0>        -0.1388
      2 C2          3.6274    3.4818   -0.1277 C.ar      1 <0>        -0.1088
      3 C3          3.6359    2.0872   -0.1344 C.ar      1 <0>        -0.0802
      4 C4          2.4340    1.3865   -0.1528 C.ar      1 <0>        -0.0686
      5 C5          1.2273    2.0843   -0.1645 C.ar      1 <0>        -0.1130
      6 C6          1.2326    3.4815   -0.1630 C.ar      1 <0>        -0.0685
      7 C7         -0.0537    1.3485   -0.1847 C.2       1 <0>         0.4889
      8 O1         -0.0564    0.1338   -0.1911 O.co2     1 <0>        -0.6297
      9 C8          4.9243    1.3521   -0.1214 C.ar      1 <0>        -0.0240
     10 C9          4.9245   -0.0510   -0.1278 C.ar      1 <0>        -0.0805
     11 C10         6.0920   -0.7491   -0.1162 C.ar      1 <0>        -0.1133
     12 C11         7.3144   -0.0614   -0.0980 C.ar      1 <0>        -0.0144
     13 C12         7.3240    1.3566   -0.0918 C.ar      1 <0>        -0.1103
     14 C13         6.1171    2.0570   -0.1088 C.ar      1 <0>        -0.0755
     15 C14         8.6184    2.0378   -0.0737 C.ar      1 <0>         0.4061
     16 N1          9.7276    1.3086   -0.0634 N.ar      1 <0>        -0.5154
     17 C15         9.7071   -0.0155   -0.0689 C.ar      1 <0>         0.1094
     18 C16         8.5519   -0.7348   -0.0860 C.ar      1 <0>        -0.1044
     19 Cl1         8.6029   -2.4700   -0.0934 Cl        1 <0>        -0.0630
     20 N2          8.6843    3.3954   -0.0679 N.2       1 <0>        -0.6265
     21 C17         8.6246    4.0528    1.0719 C.2       1 <0>         0.6822
     22 N3          8.6146    3.3680    2.2576 N.pl3     1 <0>        -0.8749
     23 N4          8.5726    5.4212    1.0712 N.pl3     1 <0>        -0.8341
     24 H1          2.4285    5.2491   -0.1352 H         1 <0>         0.1194
     25 H2          4.5602    4.0260   -0.1133 H         1 <0>         0.1161
     26 H3          2.4360    0.3065   -0.1585 H         1 <0>         0.1307
     27 H4          0.2989    4.0242   -0.1762 H         1 <0>         0.1324
     28 H5          3.9852   -0.5839   -0.1417 H         1 <0>         0.1382
     29 H6          6.0778   -1.8289   -0.1213 H         1 <0>         0.1363
     30 H7          6.1128    3.1370   -0.1081 H         1 <0>         0.1347
     31 H8         10.6472   -0.5471   -0.0598 H         1 <0>         0.1537
     32 H9          8.7290    2.4047    2.2623 H         1 <0>         0.4144
     33 H10         8.4932    3.8460    3.0929 H         1 <0>         0.3998
     34 H11         8.5797    5.9063    0.2313 H         1 <0>         0.4240
     35 H12         8.5287    5.9053    1.9106 H         1 <0>         0.4101
     36 O2         -1.2187    2.0246   -0.2015 O.co2     1 <0>        -0.7525
@<TRIPOS>BOND
     1    1    6 ar
     2    1    2 ar
     3    1   24 1
     4    2    3 ar
     5    2   25 1
     6    3    4 ar
     7    3    9 1
     8    4    5 ar
     9    4   26 1
    10    5    6 ar
    11    5    7 1
    12    6   27 1
    13    7    8 2
    14    7   36 1
    15    9   14 ar
    16    9   10 ar
    17   10   11 ar
    18   10   28 1
    19   11   12 ar
    20   11   29 1
    21   12   18 ar
    22   12   13 ar
    23   13   14 ar
    24   13   15 ar
    25   14   30 1
    26   15   16 ar
    27   15   20 1
    28   16   17 ar
    29   17   18 ar
    30   17   31 1
    31   18   19 1
    32   20   21 2
    33   21   22 1
    34   21   23 1
    35   22   32 1
    36   22   33 1
    37   23   34 1
    38   23   35 1
@<TRIPOS>MOLECULE
ZINC00156390
   20    20     0     0     0
SMALL
USER_CHARGES

@<TRIPOS>ATOM
      1 C1         -0.0169    1.3930    0.0097 C.ar      1 <0>        -0.0023
      2 C2          1.1665    2.0960    0.0022 C.ar      1 <0>        -0.2004
      3 C3          2.3811    1.4166   -0.0135 C.ar      1 <0>         0.2885
      4 C4          2.4031    0.0248   -0.0217 C.ar      1 <0>        -0.2003
      5 C5          1.2229   -0.6834   -0.0138 C.ar      1 <0>        -0.0024
      6 C6          0.0021   -0.0041    0.0020 C.ar      1 <0>        -0.2308
      7 C7         -1.2658   -0.7612    0.0105 C.cat     1 <0>         0.6035
      8 N1         -1.2463   -2.0938    0.0032 N.pl3     1 <0>        -0.7725
      9 N2         -2.4296   -0.1119    0.0256 N.pl3     1 <0>        -0.7725
     10 N3          3.5755    2.1297   -0.0216 N.pl3     1 <0>        -0.8417
     11 H1         -0.9590    1.9207    0.0260 H         1 <0>         0.1357
     12 H2          1.1524    3.1759    0.0081 H         1 <0>         0.1448
     13 H3          3.3470   -0.4998   -0.0346 H         1 <0>         0.1448
     14 H4          1.2405   -1.7633   -0.0201 H         1 <0>         0.1356
     15 H5         -0.3993   -2.5664   -0.0077 H         1 <0>         0.4416
     16 H6         -2.4438    0.8580    0.0309 H         1 <0>         0.4416
     17 H7         -3.2624   -0.6092    0.0312 H         1 <0>         0.4302
     18 H8          3.5612    3.0996   -0.0162 H         1 <0>         0.4131
     19 H9          4.4225    1.6571   -0.0325 H         1 <0>         0.4131
     20 H10        -2.0791   -2.5911    0.0088 H         1 <0>         0.4302
@<TRIPOS>BOND
     1    1    6 ar
     2    1    2 ar
     3    1   11 1
     4    2    3 ar
     5    2   12 1
     6    3    4 ar
     7    3   10 1
     8    4    5 ar
     9    4   13 1
    10    5    6 ar
    11    5   14 1
    12    6    7 1
    13    7    8 2
    14    7    9 1
    15    8   15 1
    16    8   20 1
    17    9   16 1
    18    9   17 1
    19   10   18 1
    20   10   19 1
@<TRIPOS>MOLECULE
ZINC05117282
   18    19     0     0     0
SMALL
USER_CHARGES

@<TRIPOS>ATOM
      1 C1         -0.0168    1.3867    0.0097 C.ar      1 <0>        -0.1401
      2 C2          1.1639    2.1006    0.0022 C.ar      1 <0>        -0.0854
      3 C3          2.3770    1.4303   -0.0129 C.ar      1 <0>         0.0295
      4 C4          2.4047    0.0259   -0.0207 C.ar      1 <0>         0.1003
      5 C5          1.2033   -0.6865   -0.0134 C.ar      1 <0>        -0.1104
      6 C6          0.0021   -0.0041    0.0020 C.ar      1 <0>         0.1069
      7 O1         -1.1685   -0.6961    0.0099 O.3       1 <0>        -0.4961
      8 N1          3.7111   -0.3484   -0.0351 N.2       1 <0>        -0.5492
      9 C7          4.4744    0.7160   -0.0367 C.2       1 <0>         0.5515
     10 N2          3.7019    1.8415   -0.0233 N.pl3     1 <0>        -0.6240
     11 N3          5.8533    0.7019   -0.0495 N.pl3     1 <0>        -0.8297
     12 H1         -0.9610    1.9108    0.0260 H         1 <0>         0.1360
     13 H2          1.1428    3.1803    0.0078 H         1 <0>         0.1267
     14 H3          1.2133   -1.7664   -0.0196 H         1 <0>         0.1351
     15 H4         -1.5158   -0.8915   -0.8712 H         1 <0>         0.3905
     16 H5          6.3296   -0.1431   -0.0586 H         1 <0>         0.4265
     17 H6          6.3469    1.5369   -0.0494 H         1 <0>         0.4112
     18 H7          4.0200    2.7578   -0.0215 H         1 <0>         0.4208
@<TRIPOS>BOND
     1    1    6 ar
     2    1    2 ar
     3    1   12 1
     4    2    3 ar
     5    2   13 1
     6    3   10 1
     7    3    4 ar
     8    4    5 ar
     9    4    8 1
    10    5    6 ar
    11    5   14 1
    12    6    7 1
    13    7   15 1
    14    8    9 2
    15    9   10 1
    16    9   11 1
    17   10   18 1
    18   11   16 1
    19   11   17 1
@<TRIPOS>MOLECULE
ZINC05117282
   18    19     0     0     0
SMALL
USER_CHARGES

@<TRIPOS>ATOM
      1 C1         -0.0168    1.3867    0.0097 C.ar      1 <0>        -0.1868
      2 C2          1.1639    2.1006    0.0022 C.ar      1 <0>        -0.0512
      3 C3          2.3770    1.4303   -0.0129 C.ar      1 <0>        -0.0621
      4 C4          2.4047    0.0259   -0.0207 C.ar      1 <0>         0.1200
      5 C5          1.2033   -0.6865   -0.0134 C.ar      1 <0>        -0.2581
      6 C6          0.0021   -0.0041    0.0020 C.ar      1 <0>         0.2917
      7 O1         -1.1685   -0.6961    0.0099 O.3       1 <0>        -0.6787
      8 N1          3.7111   -0.3484   -0.0351 N.pl3     1 <0>        -0.5386
      9 C7          4.4744    0.7160   -0.0367 C.cat     1 <0>         0.6054
     10 N2          3.7019    1.8415   -0.0233 N.pl3     1 <0>        -0.5478
     11 N3          5.8533    0.7019   -0.0495 N.pl3     1 <0>        -0.8189
     12 H1         -0.9610    1.9108    0.0260 H         1 <0>         0.1281
     13 H2          1.1428    3.1803    0.0078 H         1 <0>         0.1221
     14 H3          1.2133   -1.7664   -0.0196 H         1 <0>         0.1206
     15 H4          6.3296   -0.1431   -0.0582 H         1 <0>         0.4326
     16 H5          6.3469    1.5369   -0.0498 H         1 <0>         0.4323
     17 H6          4.0200    2.7578   -0.0215 H         1 <0>         0.4444
     18 H7          4.0299   -1.2645   -0.0427 H         1 <0>         0.4451
@<TRIPOS>BOND
     1    1    6 ar
     2    1    2 ar
     3    1   12 1
     4    2    3 ar
     5    2   13 1
     6    3   10 1
     7    3    4 ar
     8    4    5 ar
     9    4    8 1
    10    5    6 ar
    11    5   14 1
    12    6    7 1
    13    8    9 2
    14    8   18 1
    15    9   10 1
    16    9   11 1
    17   10   17 1
    18   11   15 1
    19   11   16 1
@<TRIPOS>MOLECULE
ZINC13507607
   52    51     0     0     0
SMALL
USER_CHARGES

@<TRIPOS>ATOM
      1 C1         -0.0187    1.5258    0.0104 C.3       1 <0>        -0.1346
      2 C2          0.0021   -0.0041    0.0020 C.3       1 <0>        -0.1222
      3 C3         -1.4333   -0.5336    0.0129 C.3       1 <0>         0.1066
      4 H1         -1.9862   -0.1019   -0.8214 H         1 <0>         0.1290
      5 C4         -1.4159   -2.0348   -0.1192 C.2       1 <0>         0.3310
      6 O1         -1.6393   -2.7282    0.8439 O.2       1 <0>        -0.4048
      7 C5         -1.1198   -2.6704   -1.4531 C.3       1 <0>        -0.1009
      8 Cl1        -1.1719   -4.4651   -1.2884 Cl        1 <0>        -0.1289
      9 N1         -2.0815   -0.1618    1.2729 N.am      1 <0>        -0.7117
     10 C6         -3.4235   -0.0535    1.3341 C.2       1 <0>         0.5149
     11 O2         -4.0945   -0.2639    0.3460 O.2       1 <0>        -0.5199
     12 C7         -4.0903    0.3291    2.6303 C.3       1 <0>         0.1000
     13 N2         -5.5416    0.3788    2.4368 N.am      1 <0>        -0.6963
     14 C8         -6.3481    0.7019    3.4671 C.2       1 <0>         0.5154
     15 O3         -5.8724    0.9515    4.5545 O.2       1 <0>        -0.5292
     16 C9         -7.8411    0.7530    3.2681 C.3       1 <0>         0.0080
     17 H2         -8.1512   -0.0751    2.6309 H         1 <0>         0.1632
     18 C10        -8.2220    2.0778    2.6042 C.3       1 <0>        -0.1132
     19 C11        -9.7191    2.0782    2.2888 C.3       1 <0>        -0.2016
     20 C12       -10.0944    3.3831    1.6349 C.2       1 <0>         0.4888
     21 O4         -9.2432    4.2339    1.4393 O.co2     1 <0>        -0.6902
     22 O5        -11.2491    3.5881    1.3015 O.co2     1 <0>        -0.6795
     23 N3         -8.5126    0.6470    4.5703 N.4       1 <0>        -0.6192
     24 C13         1.4167    2.0553   -0.0004 C.3       1 <0>         0.0927
     25 N4          1.3968    3.5202    0.0076 N.pl3     1 <0>        -0.6964
     26 C14         2.5720    4.2202    0.0002 C.cat     1 <0>         0.7427
     27 N5          2.5540    5.5520    0.0075 N.pl3     1 <0>        -0.7929
     28 N6          3.7344    3.5700   -0.0144 N.pl3     1 <0>        -0.7931
     29 H3         -0.5459    1.8868   -0.8726 H         1 <0>         0.0911
     30 H4         -0.5289    1.8773    0.9072 H         1 <0>         0.0866
     31 H5          0.5123   -0.3556   -0.8948 H         1 <0>         0.1002
     32 H6          0.5293   -0.3651    0.8851 H         1 <0>         0.0895
     33 H7         -1.8649   -2.3506   -2.1814 H         1 <0>         0.1314
     34 H8         -0.1288   -2.3650   -1.7891 H         1 <0>         0.1278
     35 H9         -1.5448    0.0065    2.0632 H         1 <0>         0.4105
     36 H10        -3.8507   -0.4106    3.3943 H         1 <0>         0.1127
     37 H11        -3.7323    1.3084    2.9478 H         1 <0>         0.1111
     38 H12        -5.9221    0.1791    1.5672 H         1 <0>         0.4237
     39 H13        -7.9928    2.9019    3.2798 H         1 <0>         0.0967
     40 H14        -7.6560    2.1972    1.6804 H         1 <0>         0.1141
     41 H15        -9.9484    1.2542    1.6132 H         1 <0>         0.0775
     42 H16       -10.2851    1.9588    3.2127 H         1 <0>         0.0578
     43 H17        -9.5122    0.6812    4.4371 H         1 <0>         0.4452
     44 H18        -8.2614   -0.2267    5.0081 H         1 <0>         0.4334
     45 H19         1.9439    1.6943    0.8826 H         1 <0>         0.0943
     46 H20         1.9269    1.7038   -0.8972 H         1 <0>         0.0956
     47 H21         0.5503    3.9937    0.0183 H         1 <0>         0.4369
     48 H22         1.7074    6.0255    0.0181 H         1 <0>         0.4421
     49 H23         3.7475    2.6001   -0.0198 H         1 <0>         0.4394
     50 H24         4.5677    4.0664   -0.0197 H         1 <0>         0.4417
     51 H25         3.3873    6.0484    0.0022 H         1 <0>         0.4421
     52 H26        -8.2255    1.4136    5.1602 H         1 <0>         0.4408
@<TRIPOS>BOND
     1    1    2 1
     2    1   24 1
     3    1   29 1
     4    1   30 1
     5    2    3 1
     6    2   31 1
     7    2   32 1
     8    3    4 1
     9    3    5 1
    10    3    9 1
    11    5    6 2
    12    5    7 1
    13    7    8 1
    14    7   33 1
    15    7   34 1
    16    9   10 am
    17    9   35 1
    18   10   11 2
    19   10   12 1
    20   12   13 1
    21   12   36 1
    22   12   37 1
    23   13   14 am
    24   13   38 1
    25   14   15 2
    26   14   16 1
    27   16   17 1
    28   16   18 1
    29   16   23 1
    30   18   19 1
    31   18   39 1
    32   18   40 1
    33   19   20 1
    34   19   41 1
    35   19   42 1
    36   20   21 2
    37   20   22 1
    38   23   43 1
    39   23   44 1
    40   23   52 1
    41   24   25 1
    42   24   45 1
    43   24   46 1
    44   25   26 1
    45   25   47 1
    46   26   27 2
    47   26   28 1
    48   27   48 1
    49   27   51 1
    50   28   49 1
    51   28   50 1
@<TRIPOS>MOLECULE
ZINC14960720
   40    42     0     0     0
SMALL
USER_CHARGES

@<TRIPOS>ATOM
      1 C1          0.0175    1.4212   -0.0202 C.ar      1 <0>        -0.0138
      2 C2          1.1831    2.1292   -0.0185 C.ar      1 <0>        -0.1287
      3 C3          2.4050    1.4440   -0.0242 C.ar      1 <0>         0.0409
      4 C4          2.4099    0.0268   -0.0316 C.ar      1 <0>        -0.1498
      5 C5          1.1976   -0.6677   -0.0332 C.ar      1 <0>         0.0531
      6 C6          0.0242    0.0294   -0.0276 C.ar      1 <0>        -0.6916
      7 S1         -1.5051   -0.8457   -0.0290 S.o2      1 <0>         2.6918
      8 O1         -1.2379   -2.1312    0.5145 O.2       1 <0>        -0.9499
      9 O2         -2.4749    0.0305    0.5284 O.2       1 <0>        -0.9474
     10 N1         -1.9333   -1.0806   -1.6114 N.pl3     1 <0>        -0.9995
     11 C7         -2.7506   -0.0901   -2.3299 C.3       1 <0>         0.0850
     12 C8         -2.0562    0.2389   -3.6564 C.3       1 <0>         0.0458
     13 O3         -1.7732   -0.9766   -4.3537 O.3       1 <0>        -0.3738
     14 C9         -0.8735   -1.8496   -3.6665 C.3       1 <0>         0.0462
     15 C10        -1.5026   -2.2829   -2.3423 C.3       1 <0>         0.0853
     16 C11         3.7019   -0.6583   -0.0369 C.ar      1 <0>         0.4310
     17 N2          4.8130    0.0674   -0.0346 N.ar      1 <0>        -0.5168
     18 C12         4.7973    1.3921   -0.0276 C.ar      1 <0>         0.1480
     19 C13         3.6450    2.1149   -0.0223 C.ar      1 <0>        -0.1315
     20 Cl1         3.7008    3.8499   -0.0139 Cl        1 <0>        -0.0491
     21 N3          3.7637   -2.0164   -0.0437 N.2       1 <0>        -0.6375
     22 C14         3.9046   -2.6748    1.0882 C.2       1 <0>         0.6951
     23 N4          3.8789   -2.0010    2.2801 N.pl3     1 <0>        -0.8727
     24 N5          4.0767   -4.0333    1.0733 N.pl3     1 <0>        -0.8280
     25 H1         -0.9250    1.9484   -0.0113 H         1 <0>         0.1446
     26 H2          1.1643    3.2090   -0.0132 H         1 <0>         0.1453
     27 H3          1.1890   -1.7477   -0.0393 H         1 <0>         0.1493
     28 H4         -3.7400   -0.5034   -2.5261 H         1 <0>         0.0878
     29 H5         -2.8428    0.8149   -1.7294 H         1 <0>         0.1002
     30 H6         -2.7103    0.8637   -4.2646 H         1 <0>         0.1095
     31 H7         -1.1253    0.7701   -3.4580 H         1 <0>         0.0568
     32 H8         -0.6767   -2.7274   -4.2820 H         1 <0>         0.1099
     33 H9          0.0617   -1.3260   -3.4682 H         1 <0>         0.0564
     34 H10        -0.7687   -2.8294   -1.7499 H         1 <0>         0.0994
     35 H11        -2.3641   -2.9208   -2.5397 H         1 <0>         0.0875
     36 H12         5.7392    1.9205   -0.0261 H         1 <0>         0.1628
     37 H13         3.6815   -1.0514    2.2962 H         1 <0>         0.4134
     38 H14         4.0582   -2.4733    3.1082 H         1 <0>         0.4047
     39 H15         4.0949   -4.5106    0.2290 H         1 <0>         0.4266
     40 H16         4.1805   -4.5182    1.9069 H         1 <0>         0.4136
@<TRIPOS>BOND
     1    1    6 ar
     2    1    2 ar
     3    1   25 1
     4    2    3 ar
     5    2   26 1
     6    3   19 ar
     7    3    4 ar
     8    4    5 ar
     9    4   16 ar
    10    5    6 ar
    11    5   27 1
    12    6    7 1
    13    7    8 2
    14    7    9 2
    15    7   10 1
    16   10   15 1
    17   10   11 1
    18   11   12 1
    19   11   28 1
    20   11   29 1
    21   12   13 1
    22   12   30 1
    23   12   31 1
    24   13   14 1
    25   14   15 1
    26   14   32 1
    27   14   33 1
    28   15   34 1
    29   15   35 1
    30   16   17 ar
    31   16   21 1
    32   17   18 ar
    33   18   19 ar
    34   18   36 1
    35   19   20 1
    36   21   22 2
    37   22   23 1
    38   22   24 1
    39   23   37 1
    40   23   38 1
    41   24   39 1
    42   24   40 1
@<TRIPOS>MOLECULE
ZINC14960724
   44    46     0     0     0
SMALL
USER_CHARGES

@<TRIPOS>ATOM
      1 C1          0.2093    1.5401   -0.0468 C.3       1 <0>         0.0243
      2 N1          0.1905    0.0712   -0.0456 N.3       1 <0>        -0.5424
      3 C2         -1.1845   -0.4378   -0.1361 C.3       1 <0>         0.0427
      4 C3         -1.1516   -1.9595   -0.3144 C.3       1 <0>         0.1201
      5 N2         -0.3438   -2.5395    0.7693 N.pl3     1 <0>        -0.9985
      6 C4          0.9973   -1.9858    1.0103 C.3       1 <0>         0.1206
      7 C5          0.8799   -0.4631    1.1364 C.3       1 <0>         0.0433
      8 S1         -0.9285   -3.7833    1.6930 S.o2      1 <0>         2.6910
      9 O1         -0.2259   -3.7376    2.9273 O.2       1 <0>        -0.9533
     10 O2         -2.3458   -3.7119    1.6201 O.2       1 <0>        -0.9505
     11 C6         -0.4585   -5.2857    0.9015 C.ar      1 <0>        -0.6882
     12 C7         -1.3045   -5.8548   -0.0467 C.ar      1 <0>        -0.0129
     13 C8         -0.9715   -7.0167   -0.6775 C.ar      1 <0>        -0.1290
     14 C9          0.2411   -7.6465   -0.3663 C.ar      1 <0>         0.0407
     15 C10         1.1011   -7.0654    0.5987 C.ar      1 <0>        -0.1499
     16 C11         0.7314   -5.8708    1.2229 C.ar      1 <0>         0.0529
     17 C12         2.3590   -7.7468    0.9005 C.ar      1 <0>         0.4307
     18 N3          2.6462   -8.8757    0.2639 N.ar      1 <0>        -0.5156
     19 C13         1.8352   -9.4103   -0.6365 C.ar      1 <0>         0.1468
     20 C14         0.6452   -8.8483   -0.9817 C.ar      1 <0>        -0.1307
     21 Cl1        -0.3678   -9.6059   -2.1706 Cl        1 <0>        -0.0495
     22 N4          3.2206   -7.2324    1.8176 N.2       1 <0>        -0.6346
     23 C15         3.0704   -7.5172    3.0947 C.2       1 <0>         0.6911
     24 N5          2.1210   -8.4228    3.4872 N.pl3     1 <0>        -0.8741
     25 N6          3.8634   -6.9079    4.0301 N.pl3     1 <0>        -0.8284
     26 H1          1.2414    1.8903   -0.0561 H         1 <0>         0.0714
     27 H2         -0.3077    1.9093   -0.9326 H         1 <0>         0.0711
     28 H3         -0.2921    1.9106    0.8473 H         1 <0>         0.0271
     29 H4         -1.7248   -0.1902    0.7776 H         1 <0>         0.0421
     30 H5         -1.6855    0.0177   -0.9903 H         1 <0>         0.0911
     31 H6         -2.1660   -2.3556   -0.2672 H         1 <0>         0.0989
     32 H7         -0.7037   -2.2057   -1.2771 H         1 <0>         0.0809
     33 H8          1.4037   -2.3994    1.9333 H         1 <0>         0.0977
     34 H9          1.6518   -2.2346    0.1750 H         1 <0>         0.0807
     35 H10         1.8760   -0.0259    1.2052 H         1 <0>         0.0909
     36 H11         0.3107   -0.2152    2.0324 H         1 <0>         0.0420
     37 H12        -2.2388   -5.3687   -0.2858 H         1 <0>         0.1446
     38 H13        -1.6368   -7.4483   -1.4106 H         1 <0>         0.1451
     39 H14         1.3805   -5.4167    1.9570 H         1 <0>         0.1477
     40 H15         2.1309  -10.3313   -1.1168 H         1 <0>         0.1632
     41 H16         1.6122   -8.9113    2.8213 H         1 <0>         0.4142
     42 H17         1.9574   -8.5756    4.4310 H         1 <0>         0.4044
     43 H18         4.5359   -6.2665    3.7521 H         1 <0>         0.4265
     44 H19         3.7528   -7.1177    4.9706 H         1 <0>         0.4138
@<TRIPOS>BOND
     1    1    2 1
     2    1   26 1
     3    1   27 1
     4    1   28 1
     5    2    7 1
     6    2    3 1
     7    3    4 1
     8    3   29 1
     9    3   30 1
    10    4    5 1
    11    4   31 1
    12    4   32 1
    13    5    6 1
    14    5    8 1
    15    6    7 1
    16    6   33 1
    17    6   34 1
    18    7   35 1
    19    7   36 1
    20    8    9 2
    21    8   10 2
    22    8   11 1
    23   11   16 ar
    24   11   12 ar
    25   12   13 ar
    26   12   37 1
    27   13   14 ar
    28   13   38 1
    29   14   20 ar
    30   14   15 ar
    31   15   16 ar
    32   15   17 ar
    33   16   39 1
    34   17   18 ar
    35   17   22 1
    36   18   19 ar
    37   19   20 ar
    38   19   40 1
    39   20   21 1
    40   22   23 2
    41   23   24 1
    42   23   25 1
    43   24   41 1
    44   24   42 1
    45   25   43 1
    46   25   44 1
@<TRIPOS>MOLECULE
ZINC14960724
   45    47     0     0     0
SMALL
USER_CHARGES

@<TRIPOS>ATOM
      1 C1          0.2085    1.5333   -0.0570 C.3       1 <0>        -0.0471
      2 N1          0.1902    0.0644   -0.0545 N.4       1 <0>        -0.3849
      3 C2         -1.2008   -0.4059   -0.0536 C.3       1 <0>        -0.0189
      4 C3         -1.2224   -1.9339   -0.1666 C.3       1 <0>         0.0902
      5 N2         -0.3916   -2.4929    0.9111 N.pl3     1 <0>        -1.0142
      6 C4          0.9679   -1.9591    1.0864 C.3       1 <0>         0.0901
      7 C5          0.8861   -0.4300    1.1403 C.3       1 <0>        -0.0183
      8 S1         -0.9707   -3.6890    1.8993 S.o2      1 <0>         2.6921
      9 O1         -0.2259   -3.6140    3.1071 O.2       1 <0>        -0.9392
     10 O2         -2.3879   -3.5888    1.8707 O.2       1 <0>        -0.9358
     11 C6         -0.5596   -5.2293    1.1490 C.ar      1 <0>        -0.6965
     12 C7         -1.4489   -5.8136    0.2512 C.ar      1 <0>        -0.0211
     13 C8         -1.1620   -7.0048   -0.3467 C.ar      1 <0>        -0.1217
     14 C9          0.0469   -7.6497   -0.0527 C.ar      1 <0>         0.0455
     15 C10         0.9512   -7.0532    0.8611 C.ar      1 <0>        -0.1522
     16 C11         0.6280   -5.8287    1.4524 C.ar      1 <0>         0.0566
     17 C12         2.2039   -7.7509    1.1461 C.ar      1 <0>         0.4316
     18 N3          2.4456   -8.9084    0.5429 N.ar      1 <0>        -0.5106
     19 C13         1.5935   -9.4573   -0.3097 C.ar      1 <0>         0.1558
     20 C14         0.4046   -8.8818   -0.6360 C.ar      1 <0>        -0.1347
     21 Cl1        -0.6638   -9.6595   -1.7618 Cl        1 <0>        -0.0416
     22 N4          3.1068   -7.2227    2.0146 N.2       1 <0>        -0.6398
     23 C15         2.9940   -7.4575    3.3056 C.2       1 <0>         0.6936
     24 N5          2.0397   -8.3267    3.7626 N.pl3     1 <0>        -0.8729
     25 N6          3.8309   -6.8323    4.1909 N.pl3     1 <0>        -0.8276
     26 H1          1.2406    1.8837   -0.0658 H         1 <0>         0.1263
     27 H2         -0.3078    1.9016   -0.9435 H         1 <0>         0.1264
     28 H3         -0.2936    1.9044    0.8364 H         1 <0>         0.1232
     29 H4         -1.6862   -0.1033    0.8743 H         1 <0>         0.1365
     30 H5         -1.7320    0.0287   -0.9004 H         1 <0>         0.1473
     31 H6         -2.2460   -2.2943   -0.0645 H         1 <0>         0.1401
     32 H7         -0.8195   -2.2353   -1.1335 H         1 <0>         0.1013
     33 H8          1.3924   -2.3362    2.0168 H         1 <0>         0.1390
     34 H9          1.5920   -2.2631    0.2460 H         1 <0>         0.1013
     35 H10         1.8926   -0.0130    1.1732 H         1 <0>         0.1471
     36 H11         0.3375   -0.1265    2.0320 H         1 <0>         0.1364
     37 H12        -2.3804   -5.3159    0.0252 H         1 <0>         0.1441
     38 H13        -1.8608   -7.4479   -1.0408 H         1 <0>         0.1477
     39 H14         1.3110   -5.3627    2.1472 H         1 <0>         0.1477
     40 H15         1.8533  -10.4015   -0.7651 H         1 <0>         0.1673
     41 H16         1.4984   -8.8278    3.1326 H         1 <0>         0.4147
     42 H17         1.9049   -8.4414    4.7164 H         1 <0>         0.4067
     43 H18         4.5069   -6.2165    3.8672 H         1 <0>         0.4263
     44 H19         3.7478   -7.0052    5.1418 H         1 <0>         0.4158
     45 H20         0.6579   -0.2780   -0.8804 H         1 <0>         0.4262
@<TRIPOS>BOND
     1    1    2 1
     2    1   26 1
     3    1   27 1
     4    1   28 1
     5    2    7 1
     6    2    3 1
     7    2   45 1
     8    3    4 1
     9    3   29 1
    10    3   30 1
    11    4    5 1
    12    4   31 1
    13    4   32 1
    14    5    6 1
    15    5    8 1
    16    6    7 1
    17    6   33 1
    18    6   34 1
    19    7   35 1
    20    7   36 1
    21    8    9 2
    22    8   10 2
    23    8   11 1
    24   11   16 ar
    25   11   12 ar
    26   12   13 ar
    27   12   37 1
    28   13   14 ar
    29   13   38 1
    30   14   20 ar
    31   14   15 ar
    32   15   16 ar
    33   15   17 ar
    34   16   39 1
    35   17   18 ar
    36   17   22 1
    37   18   19 ar
    38   19   20 ar
    39   19   40 1
    40   20   21 1
    41   22   23 2
    42   23   24 1
    43   23   25 1
    44   24   41 1
    45   24   42 1
    46   25   43 1
    47   25   44 1
@<TRIPOS>MOLECULE
ZINC14960708
   29    30     0     0     0
SMALL
USER_CHARGES

@<TRIPOS>ATOM
      1 C1         -0.0745    1.3274    0.0932 C.ar      1 <0>        -0.0128
      2 C2          1.0728    2.0639    0.0603 C.ar      1 <0>        -0.1295
      3 C3          2.3105    1.4091    0.0179 C.ar      1 <0>         0.0433
      4 C4          2.3501   -0.0077    0.0099 C.ar      1 <0>        -0.1527
      5 C5          1.1557   -0.7318    0.0444 C.ar      1 <0>         0.0552
      6 C6         -0.0337   -0.0638    0.0852 C.ar      1 <0>        -0.6869
      7 S1         -1.5404   -0.9763    0.1293 S.o2      1 <0>         2.7008
      8 O1         -1.2255   -2.2546    0.6642 O.2       1 <0>        -0.9592
      9 O2         -2.5144   -0.1240    0.7157 O.2       1 <0>        -0.9577
     10 N1         -2.0098   -1.2224   -1.4396 N.pl3     1 <0>        -1.2494
     11 C7          3.6578   -0.6607   -0.0342 C.ar      1 <0>         0.4320
     12 N2          4.7503    0.0922   -0.0648 N.ar      1 <0>        -0.5156
     13 C8          4.7022    1.4161   -0.0570 C.ar      1 <0>         0.1493
     14 C9          3.5331    2.1102   -0.0171 C.ar      1 <0>        -0.1321
     15 Cl1         3.5464    3.8461   -0.0099 Cl        1 <0>        -0.0482
     16 N3          3.7528   -2.0169   -0.0432 N.2       1 <0>        -0.6311
     17 C10         3.6849   -2.6742   -1.1824 C.2       1 <0>         0.6892
     18 N4          3.6368   -1.9885   -2.3668 N.pl3     1 <0>        -0.8750
     19 N5          3.6625   -4.0434   -1.1826 N.pl3     1 <0>        -0.8286
     20 H1         -1.0290    1.8313    0.1305 H         1 <0>         0.1490
     21 H2          1.0276    3.1429    0.0664 H         1 <0>         0.1464
     22 H3          1.1736   -1.8116    0.0383 H         1 <0>         0.1519
     23 H4         -1.4690   -0.8777   -2.1674 H         1 <0>         0.4162
     24 H5         -2.8255   -1.7112   -1.6308 H         1 <0>         0.4223
     25 H6          5.6304    1.9675   -0.0835 H         1 <0>         0.1639
     26 H7          3.7302   -1.0231   -2.3724 H         1 <0>         0.4142
     27 H8          3.5092   -2.4683   -3.2001 H         1 <0>         0.4039
     28 H9          3.6966   -4.5291   -0.3437 H         1 <0>         0.4275
     29 H10         3.6125   -4.5276   -2.0216 H         1 <0>         0.4135
@<TRIPOS>BOND
     1    1    6 ar
     2    1    2 ar
     3    1   20 1
     4    2    3 ar
     5    2   21 1
     6    3   14 ar
     7    3    4 ar
     8    4    5 ar
     9    4   11 ar
    10    5    6 ar
    11    5   22 1
    12    6    7 1
    13    7    8 2
    14    7    9 2
    15    7   10 1
    16   10   23 1
    17   10   24 1
    18   11   12 ar
    19   11   16 1
    20   12   13 ar
    21   13   14 ar
    22   13   25 1
    23   14   15 1
    24   16   17 2
    25   17   18 1
    26   17   19 1
    27   18   26 1
    28   18   27 1
    29   19   28 1
    30   19   29 1
@<TRIPOS>MOLECULE
ZINC14960716
   39    41     0     0     0
SMALL
USER_CHARGES

@<TRIPOS>ATOM
      1 C1         -0.0745    1.3274    0.0932 C.ar      1 <0>        -0.0128
      2 C2          1.0728    2.0639    0.0603 C.ar      1 <0>        -0.1294
      3 C3          2.3105    1.4091    0.0179 C.ar      1 <0>         0.0406
      4 C4          2.3501   -0.0077    0.0099 C.ar      1 <0>        -0.1500
      5 C5          1.1557   -0.7318    0.0444 C.ar      1 <0>         0.0527
      6 C6         -0.0337   -0.0638    0.0852 C.ar      1 <0>        -0.6893
      7 S1         -1.5404   -0.9763    0.1293 S.o2      1 <0>         2.7075
      8 O1         -1.2255   -2.2546    0.6642 O.2       1 <0>        -0.9481
      9 O2         -2.5144   -0.1240    0.7157 O.2       1 <0>        -0.9464
     10 N1         -2.0098   -1.2224   -1.4396 N.pl3     1 <0>        -1.0116
     11 C7         -2.8658   -0.3245   -2.2287 C.3       1 <0>         0.1162
     12 C8         -3.0526   -0.9724   -3.6169 C.3       1 <0>        -0.1292
     13 C9         -2.7570   -2.4708   -3.3437 C.3       1 <0>        -0.1292
     14 C10        -1.6334   -2.3748   -2.2784 C.3       1 <0>         0.1132
     15 C11         3.6578   -0.6607   -0.0342 C.ar      1 <0>         0.4302
     16 N2          4.7503    0.0922   -0.0648 N.ar      1 <0>        -0.5155
     17 C12         4.7022    1.4161   -0.0570 C.ar      1 <0>         0.1466
     18 C13         3.5331    2.1102   -0.0171 C.ar      1 <0>        -0.1304
     19 Cl1         3.5464    3.8461   -0.0099 Cl        1 <0>        -0.0493
     20 N3          3.7528   -2.0169   -0.0432 N.2       1 <0>        -0.6305
     21 C14         3.6849   -2.6742   -1.1824 C.2       1 <0>         0.6886
     22 N4          3.6368   -1.9885   -2.3668 N.pl3     1 <0>        -0.8751
     23 N5          3.6625   -4.0434   -1.1826 N.pl3     1 <0>        -0.8291
     24 H1         -1.0290    1.8313    0.1305 H         1 <0>         0.1450
     25 H2          1.0276    3.1429    0.0664 H         1 <0>         0.1452
     26 H3          1.1736   -1.8116    0.0383 H         1 <0>         0.1481
     27 H4         -3.8332   -0.2101   -1.7398 H         1 <0>         0.0766
     28 H5         -2.3846    0.6477   -2.3351 H         1 <0>         0.0675
     29 H6         -4.0751   -0.8392   -3.9702 H         1 <0>         0.0844
     30 H7         -2.3397   -0.5630   -4.3326 H         1 <0>         0.0765
     31 H8         -3.6365   -2.9760   -2.9443 H         1 <0>         0.0797
     32 H9         -2.3977   -2.9687   -4.2443 H         1 <0>         0.0846
     33 H10        -0.6694   -2.1981   -2.7554 H         1 <0>         0.0657
     34 H11        -1.6001   -3.2850   -1.6797 H         1 <0>         0.0854
     35 H12         5.6304    1.9675   -0.0835 H         1 <0>         0.1634
     36 H13         3.7302   -1.0231   -2.3724 H         1 <0>         0.4141
     37 H14         3.5092   -2.4683   -3.2001 H         1 <0>         0.4034
     38 H15         3.6966   -4.5291   -0.3437 H         1 <0>         0.4273
     39 H16         3.6125   -4.5276   -2.0216 H         1 <0>         0.4132
@<TRIPOS>BOND
     1    1    6 ar
     2    1    2 ar
     3    1   24 1
     4    2    3 ar
     5    2   25 1
     6    3   18 ar
     7    3    4 ar
     8    4    5 ar
     9    4   15 ar
    10    5    6 ar
    11    5   26 1
    12    6    7 1
    13    7    8 2
    14    7    9 2
    15    7   10 1
    16   10   14 1
    17   10   11 1
    18   11   12 1
    19   11   27 1
    20   11   28 1
    21   12   13 1
    22   12   29 1
    23   12   30 1
    24   13   14 1
    25   13   31 1
    26   13   32 1
    27   14   33 1
    28   14   34 1
    29   15   16 ar
    30   15   20 1
    31   16   17 ar
    32   17   18 ar
    33   17   35 1
    34   18   19 1
    35   20   21 2
    36   21   22 1
    37   21   23 1
    38   22   36 1
    39   22   37 1
    40   23   38 1
    41   23   39 1
@<TRIPOS>MOLECULE
ZINC00945066
   44    46     0     0     0
SMALL
USER_CHARGES
methyl 5-[2-(1,3-dioxoisoindolin-2-yl)-3-methyl-butanoyl]amino-2H-1,2,4-triazole-3-carboxylate
@<TRIPOS>ATOM
      1 C1         -2.4218   -4.9193    1.6477 C.3       1 <0>        -0.1571
      2 C2         -1.8305   -3.5382    1.3583 C.3       1 <0>        -0.1059
      3 C3         -0.7937   -3.1927    2.4292 C.3       1 <0>        -0.1450
      4 C4         -1.1595   -3.5486   -0.0166 C.3       1 <0>         0.1405
      5 H1         -0.4114   -4.3407   -0.0499 H         1 <0>         0.1355
      6 C5         -2.1981   -3.7937   -1.0807 C.2       1 <0>         0.5047
      7 O1         -2.7181   -2.8562   -1.6479 O.2       1 <0>        -0.4520
      8 N1         -2.5493   -5.0546   -1.4019 N.am      1 <0>        -0.6201
      9 C6         -3.4308   -5.2862   -2.4623 C.2       1 <0>         0.4436
     10 N2         -3.8484   -6.4801   -2.8708 N.2       1 <0>        -0.4878
     11 C7         -4.6715   -6.3405   -3.8917 C.2       1 <0>         0.2752
     12 N3         -4.7908   -5.0178   -4.1525 N.pl3     1 <0>        -0.4253
     13 H2         -5.3291   -4.6081   -4.8477 H         1 <0>         0.4574
     14 N4         -3.9841   -4.3567   -3.2119 N.2       1 <0>        -0.2489
     15 C8         -5.3434   -7.4336   -4.6214 C.2       1 <0>         0.5605
     16 O2         -6.0831   -7.1787   -5.5507 O.2       1 <0>        -0.4819
     17 O3         -5.1363   -8.7142   -4.2566 O.3       1 <0>        -0.3233
     18 C9         -5.8299   -9.7371   -5.0189 C.3       1 <0>         0.0342
     19 N5         -0.5126   -2.2557   -0.2542 N.am      1 <0>        -0.5660
     20 C10        -1.1571   -1.0752   -0.2782 C.2       1 <0>         0.5746
     21 O4         -2.3490   -0.9146   -0.1089 O.2       1 <0>        -0.4286
     22 C11        -0.1718   -0.0061   -0.5450 C.ar      1 <0>        -0.1335
     23 C12        -0.2503    1.3710   -0.6777 C.ar      1 <0>        -0.0454
     24 C13         0.8984    2.1032   -0.9340 C.ar      1 <0>        -0.0920
     25 C14         2.1203    1.4690   -1.0587 C.ar      1 <0>        -0.0967
     26 C15         2.2140    0.0922   -0.9280 C.ar      1 <0>        -0.0422
     27 C16         1.0742   -0.6527   -0.6713 C.ar      1 <0>        -0.1426
     28 C17         0.8040   -2.0929   -0.4771 C.2       1 <0>         0.5790
     29 O5          1.6321   -2.9805   -0.5121 O.2       1 <0>        -0.4614
     30 H3         -1.6455   -5.6768    1.5397 H         1 <0>         0.0672
     31 H4         -2.8121   -4.9415    2.6652 H         1 <0>         0.0769
     32 H5         -3.2291   -5.1235    0.9444 H         1 <0>         0.0606
     33 H6         -2.6258   -2.7929    1.3688 H         1 <0>         0.0977
     34 H7         -0.3724   -2.2088    2.2230 H         1 <0>         0.0519
     35 H8         -1.2718   -3.1853    3.4087 H         1 <0>         0.0708
     36 H9          0.0016   -3.9379    2.4187 H         1 <0>         0.0645
     37 H10        -2.1905   -5.8014   -0.8975 H         1 <0>         0.4296
     38 H11        -6.9059   -9.5809   -4.9416 H         1 <0>         0.0712
     39 H12        -5.5283   -9.6780   -6.0647 H         1 <0>         0.0711
     40 H13        -5.5761  -10.7203   -4.6225 H         1 <0>         0.1138
     41 H14        -1.2031    1.8712   -0.5862 H         1 <0>         0.1434
     42 H15         0.8382    3.1764   -1.0380 H         1 <0>         0.1439
     43 H16         3.0082    2.0503   -1.2588 H         1 <0>         0.1440
     44 H17         3.1714   -0.3979   -1.0262 H         1 <0>         0.1434
@<TRIPOS>BOND
     1    1    2 1
     2    1   30 1
     3    1   31 1
     4    1   32 1
     5    2    3 1
     6    2    4 1
     7    2   33 1
     8    3   34 1
     9    3   35 1
    10    3   36 1
    11    4    5 1
    12    4    6 1
    13    4   19 1
    14    6    7 2
    15    6    8 am
    16    8    9 1
    17    8   37 1
    18    9   14 2
    19    9   10 1
    20   10   11 2
    21   11   12 1
    22   11   15 1
    23   12   13 1
    24   12   14 1
    25   15   16 2
    26   15   17 1
    27   17   18 1
    28   18   38 1
    29   18   39 1
    30   18   40 1
    31   19   28 am
    32   19   20 am
    33   20   21 2
    34   20   22 1
    35   22   27 ar
    36   22   23 ar
    37   23   24 ar
    38   23   41 1
    39   24   25 ar
    40   24   42 1
    41   25   26 ar
    42   25   43 1
    43   26   27 ar
    44   26   44 1
    45   27   28 1
    46   28   29 2
@<TRIPOS>MOLECULE
ZINC00945067
   43    45     0     0     0
SMALL
USER_CHARGES

@<TRIPOS>ATOM
      1 C1          0.6186    0.2072    1.1797 C.3       1 <0>        -0.1413
      2 C2         -0.1007    0.1764   -0.1703 C.3       1 <0>        -0.0984
      3 C3          0.8086   -0.4688   -1.2181 C.3       1 <0>        -0.1374
      4 C4         -1.3898   -0.6377   -0.0429 C.3       1 <0>         0.1863
      5 C5         -2.1513   -0.5793   -1.3420 C.2       1 <0>         0.3992
      6 O1         -3.1269    0.3361   -1.5111 O.3       1 <0>        -0.6753
      7 N1         -1.8679   -1.4110   -2.2991 N.2       1 <0>        -0.6167
      8 C6         -2.5616   -1.3578   -3.4824 C.2       1 <0>         0.4462
      9 N2         -2.3667   -2.1578   -4.5315 N.2       1 <0>        -0.4778
     10 C7         -3.2007   -1.8353   -5.4993 C.2       1 <0>         0.2154
     11 N3         -3.9592   -0.7987   -5.0714 N.pl3     1 <0>        -0.4634
     12 H1         -4.6603   -0.3479   -5.5674 H         1 <0>         0.4330
     13 N4         -3.5339   -0.5099   -3.7645 N.2       1 <0>        -0.2854
     14 C8         -3.2917   -2.4897   -6.8196 C.2       1 <0>         0.5685
     15 O2         -4.1046   -2.1020   -7.6349 O.2       1 <0>        -0.5080
     16 O3         -2.4731   -3.5169   -7.1204 O.3       1 <0>        -0.3210
     17 C9         -2.6162   -4.1027   -8.4159 C.3       1 <0>         0.0333
     18 N5         -2.2147   -0.0810    1.0322 N.am      1 <0>        -0.5514
     19 C10        -2.6013    1.2053    1.1067 C.2       1 <0>         0.5757
     20 O4         -2.3256    2.0759    0.3060 O.2       1 <0>        -0.4269
     21 C11        -3.4180    1.3818    2.3260 C.ar      1 <0>        -0.1241
     22 C12        -4.0691    2.4581    2.9072 C.ar      1 <0>        -0.0540
     23 C13        -4.7693    2.2803    4.0902 C.ar      1 <0>        -0.1001
     24 C14        -4.8220    1.0376    4.6933 C.ar      1 <0>        -0.1070
     25 C15        -4.1756   -0.0480    4.1234 C.ar      1 <0>        -0.0501
     26 C16        -3.4718    0.1147    2.9409 C.ar      1 <0>        -0.1375
     27 C17        -2.6902   -0.7901    2.0718 C.2       1 <0>         0.5729
     28 O5         -2.5064   -1.9749    2.2650 O.2       1 <0>        -0.4761
     29 H2          1.5823    0.7038    1.0666 H         1 <0>         0.0581
     30 H3          0.0116    0.7524    1.9025 H         1 <0>         0.0428
     31 H4          0.7744   -0.8125    1.5317 H         1 <0>         0.0560
     32 H5         -0.3426    1.1942   -0.4765 H         1 <0>         0.0868
     33 H6          1.0504   -1.4866   -0.9119 H         1 <0>         0.0564
     34 H7          0.2961   -0.4908   -2.1799 H         1 <0>         0.0779
     35 H8          1.7269    0.1112   -1.3089 H         1 <0>         0.0477
     36 H9         -1.1436   -1.6742    0.1877 H         1 <0>         0.1142
     37 H10        -1.8995   -4.9163   -8.5280 H         1 <0>         0.1062
     38 H11        -3.6281   -4.4918   -8.5290 H         1 <0>         0.0614
     39 H12        -2.4301   -3.3469   -9.1790 H         1 <0>         0.0615
     40 H13        -4.0309    3.4313    2.4407 H         1 <0>         0.1393
     41 H14        -5.2768    3.1187    4.5442 H         1 <0>         0.1372
     42 H15        -5.3705    0.9118    5.6151 H         1 <0>         0.1371
     43 H16        -4.2199   -1.0165    4.5992 H         1 <0>         0.1388
@<TRIPOS>BOND
     1    1    2 1
     2    1   29 1
     3    1   30 1
     4    1   31 1
     5    2    3 1
     6    2    4 1
     7    2   32 1
     8    3   33 1
     9    3   34 1
    10    3   35 1
    11    4    5 1
    12    4   18 1
    13    4   36 1
    14    5    6 1
    15    5    7 2
    16    7    8 1
    17    8   13 2
    18    8    9 1
    19    9   10 2
    20   10   11 1
    21   10   14 1
    22   11   12 1
    23   11   13 1
    24   14   15 2
    25   14   16 1
    26   16   17 1
    27   17   37 1
    28   17   38 1
    29   17   39 1
    30   18   27 am
    31   18   19 am
    32   19   20 2
    33   19   21 1
    34   21   26 ar
    35   21   22 ar
    36   22   23 ar
    37   22   40 1
    38   23   24 ar
    39   23   41 1
    40   24   25 ar
    41   24   42 1
    42   25   26 ar
    43   25   43 1
    44   26   27 1
    45   27   28 2
@<TRIPOS>MOLECULE
ZINC00037168
   33    34     0     0     0
SMALL
USER_CHARGES
(4-chloropyrazol-1-yl)-(4-tert-butylphenyl)-methanone
@<TRIPOS>ATOM
      1 C1          7.5842    4.3447    1.6983 C.3       1 <0>        -0.1403
      2 C2          7.0967    3.7274    0.3860 C.3       1 <0>        -0.0368
      3 C3          7.4689    2.2437    0.3511 C.3       1 <0>        -0.1470
      4 C4          7.7567    4.4466   -0.7921 C.3       1 <0>        -0.1404
      5 C5          5.5999    3.8722    0.2883 C.ar      1 <0>        -0.0264
      6 C6          5.0277    5.1321    0.3002 C.ar      1 <0>        -0.1341
      7 C7          3.6585    5.2721    0.2102 C.ar      1 <0>        -0.0459
      8 C8          2.8491    4.1385    0.1073 C.ar      1 <0>        -0.1635
      9 C9          3.4330    2.8697    0.1021 C.ar      1 <0>        -0.0685
     10 C10         4.8041    2.7447    0.1866 C.ar      1 <0>        -0.1396
     11 C11         1.3826    4.2805    0.0105 C.2       1 <0>         0.6026
     12 O1          0.8847    5.3836   -0.0925 O.2       1 <0>        -0.4727
     13 N1          0.5964    3.1860    0.0365 N.am      1 <0>        -0.3654
     14 C12        -0.7664    3.1761    0.0586 C.2       1 <0>         0.0983
     15 C13        -1.1644    1.8846    0.0742 C.2       1 <0>        -0.1679
     16 C14        -0.0168    1.0782    0.0706 C.2       1 <0>         0.1068
     17 N2          1.0338    1.8551    0.0447 N.2       1 <0>        -0.2663
     18 Cl1        -2.8068    1.3228    0.0986 Cl        1 <0>        -0.0181
     19 H1          7.1140    3.8323    2.5376 H         1 <0>         0.0579
     20 H2          8.6669    4.2400    1.7690 H         1 <0>         0.0625
     21 H3          7.3191    5.4017    1.7232 H         1 <0>         0.0587
     22 H4          7.1216    1.8039   -0.5838 H         1 <0>         0.0607
     23 H5          8.5515    2.1390    0.4218 H         1 <0>         0.0616
     24 H6          6.9987    1.7314    1.1904 H         1 <0>         0.0607
     25 H7          7.4915    5.5036   -0.7673 H         1 <0>         0.0588
     26 H8          8.8393    4.3418   -0.7215 H         1 <0>         0.0625
     27 H9          7.4094    4.0068   -1.7270 H         1 <0>         0.0580
     28 H10         5.6547    6.0078    0.3798 H         1 <0>         0.1318
     29 H11         3.2133    6.2561    0.2189 H         1 <0>         0.1358
     30 H12         2.8128    1.9887    0.0273 H         1 <0>         0.1738
     31 H13         5.2573    1.7645    0.1775 H         1 <0>         0.1360
     32 H14        -1.4110    4.0426    0.0587 H         1 <0>         0.1979
     33 H15        -0.0037   -0.0016    0.0825 H         1 <0>         0.2083
@<TRIPOS>BOND
     1    1    2 1
     2    1   19 1
     3    1   20 1
     4    1   21 1
     5    2    3 1
     6    2    4 1
     7    2    5 1
     8    3   22 1
     9    3   23 1
    10    3   24 1
    11    4   25 1
    12    4   26 1
    13    4   27 1
    14    5   10 ar
    15    5    6 ar
    16    6    7 ar
    17    6   28 1
    18    7    8 ar
    19    7   29 1
    20    8    9 ar
    21    8   11 1
    22    9   10 ar
    23    9   30 1
    24   10   31 1
    25   11   12 2
    26   11   13 am
    27   13   17 1
    28   13   14 1
    29   14   15 2
    30   14   32 1
    31   15   16 1
    32   15   18 1
    33   16   17 2
    34   16   33 1
@<TRIPOS>MOLECULE
ZINC00037184
   21    22     0     0     0
SMALL
USER_CHARGES
(4-chloropyrazol-1-yl)-(4-fluorophenyl)methanone
@<TRIPOS>ATOM
      1 C1          3.4315    2.8689    0.1020 C.ar      1 <0>        -0.0430
      2 C2          4.8012    2.7428    0.1858 C.ar      1 <0>        -0.1708
      3 C3          5.5992    3.8724    0.2882 C.ar      1 <0>         0.1427
      4 C4          5.0252    5.1347    0.3001 C.ar      1 <0>        -0.1712
      5 C5          3.6571    5.2733    0.2101 C.ar      1 <0>        -0.0189
      6 C6          2.8478    4.1386    0.1072 C.ar      1 <0>        -0.1703
      7 C7          1.3825    4.2805    0.0105 C.2       1 <0>         0.6053
      8 O1          0.8846    5.3837   -0.0927 O.2       1 <0>        -0.4688
      9 N1          0.5964    3.1861    0.0367 N.am      1 <0>        -0.3666
     10 C8         -0.7663    3.1761    0.0589 C.2       1 <0>         0.1003
     11 C9         -1.1644    1.8846    0.0748 C.2       1 <0>        -0.1675
     12 C10        -0.0169    1.0783    0.0712 C.2       1 <0>         0.1112
     13 N2          1.0338    1.8552    0.0451 N.2       1 <0>        -0.2710
     14 Cl1        -2.8068    1.3228    0.0993 Cl        1 <0>        -0.0162
     15 F1          6.9410    3.7425    0.3763 F         1 <0>        -0.1296
     16 H1          2.8106    1.9883    0.0275 H         1 <0>         0.1838
     17 H2          5.2537    1.7622    0.1767 H         1 <0>         0.1463
     18 H3          5.6516    6.0109    0.3797 H         1 <0>         0.1477
     19 H4          3.2112    6.2570    0.2188 H         1 <0>         0.1481
     20 H5         -1.4109    4.0427    0.0593 H         1 <0>         0.1991
     21 H6         -0.0037   -0.0016    0.0833 H         1 <0>         0.2095
@<TRIPOS>BOND
     1    1    6 ar
     2    1    2 ar
     3    1   16 1
     4    2    3 ar
     5    2   17 1
     6    3    4 ar
     7    3   15 1
     8    4    5 ar
     9    4   18 1
    10    5    6 ar
    11    5   19 1
    12    6    7 1
    13    7    8 2
    14    7    9 am
    15    9   13 1
    16    9   10 1
    17   10   11 2
    18   10   20 1
    19   11   12 1
    20   11   14 1
    21   12   13 2
    22   12   21 1
@<TRIPOS>MOLECULE
ZINC00037170
   26    27     0     0     0
SMALL
USER_CHARGES
(4-nitropyrazol-1-yl)-(o-tolyl)methanone
@<TRIPOS>ATOM
      1 C1         -3.2106    6.5633   -0.1411 C.3       1 <0>        -0.1363
      2 C2         -3.7947    5.1741   -0.1478 C.ar      1 <0>        -0.0068
      3 C3         -5.1533    4.9945    0.0105 C.ar      1 <0>        -0.1401
      4 C4         -5.6905    3.7195    0.0095 C.ar      1 <0>        -0.0668
      5 C5         -4.8710    2.6163   -0.1544 C.ar      1 <0>        -0.1433
      6 C6         -3.5116    2.7814   -0.3180 C.ar      1 <0>        -0.0677
      7 C7         -2.9624    4.0658   -0.3185 C.ar      1 <0>        -0.1667
      8 C8         -1.5078    4.2504   -0.4927 C.2       1 <0>         0.6006
      9 O1         -1.0224    5.3608   -0.4105 O.2       1 <0>        -0.4511
     10 N1         -0.7187    3.1868   -0.7428 N.am      1 <0>        -0.3567
     11 C9          0.6145    3.2235   -1.0196 C.2       1 <0>         0.1880
     12 C10         1.0272    1.9510   -1.2078 C.2       1 <0>        -0.1722
     13 C11        -0.0806    1.1080   -1.0428 C.2       1 <0>         0.1448
     14 N2         -1.1241    1.8460   -0.7702 N.2       1 <0>        -0.2530
     15 N3          2.4065    1.5224   -1.5315 N.pl3     1 <0>         0.0600
     16 O2          2.6580    0.3397   -1.6783 O.2       1 <0>        -0.1415
     17 O3          3.2899    2.3523   -1.6510 O.3       1 <0>        -0.1559
     18 H1         -3.0805    6.9077   -1.1670 H         1 <0>         0.0792
     19 H2         -3.8849    7.2384    0.3859 H         1 <0>         0.0698
     20 H3         -2.2441    6.5487    0.3627 H         1 <0>         0.0970
     21 H4         -5.7985    5.8509    0.1393 H         1 <0>         0.1354
     22 H5         -6.7544    3.5845    0.1376 H         1 <0>         0.1327
     23 H6         -5.2970    1.6239   -0.1538 H         1 <0>         0.1341
     24 H7         -2.8733    1.9197   -0.4459 H         1 <0>         0.1723
     25 H8          1.2298    4.1091   -1.0783 H         1 <0>         0.2187
     26 H9         -0.0738    0.0315   -1.1305 H         1 <0>         0.2252
@<TRIPOS>BOND
     1    1    2 1
     2    1   18 1
     3    1   19 1
     4    1   20 1
     5    2    7 ar
     6    2    3 ar
     7    3    4 ar
     8    3   21 1
     9    4    5 ar
    10    4   22 1
    11    5    6 ar
    12    5   23 1
    13    6    7 ar
    14    6   24 1
    15    7    8 1
    16    8    9 2
    17    8   10 am
    18   10   14 1
    19   10   11 1
    20   11   12 2
    21   11   25 1
    22   12   13 1
    23   12   15 1
    24   13   14 2
    25   13   26 1
    26   15   16 2
    27   15   17 1
@<TRIPOS>MOLECULE
ZINC00037160
   23    24     0     0     0
SMALL
USER_CHARGES
(4-chloropyrazol-1-yl)-(3-nitrophenyl)-methanone
@<TRIPOS>ATOM
      1 C1          1.1773    1.7808   -0.0325 C.ar      1 <0>        -0.1281
      2 C2          1.1660    3.1602   -0.0251 C.ar      1 <0>        -0.0253
      3 C3         -0.0501    3.8450    0.0230 C.ar      1 <0>        -0.1511
      4 C4         -1.2476    3.1268    0.0633 C.ar      1 <0>         0.0108
      5 C5         -1.2216    1.7480    0.0495 C.ar      1 <0>        -0.0585
      6 C6         -0.0126    1.0758    0.0075 C.ar      1 <0>        -0.0179
      7 N1         -2.4896    0.9852    0.0860 N.pl3     1 <0>         0.0265
      8 O1         -2.4682   -0.2326    0.0790 O.2       1 <0>        -0.1491
      9 O2         -3.5545    1.5753    0.1230 O.3       1 <0>        -0.1509
     10 C7         -0.0702    5.3215    0.0308 C.2       1 <0>         0.6070
     11 O3         -1.1271    5.9149   -0.0475 O.2       1 <0>        -0.4568
     12 N2          1.0843    6.0106    0.1248 N.am      1 <0>        -0.3680
     13 C8          1.2054    7.3634    0.2389 C.2       1 <0>         0.1034
     14 C9          2.5244    7.6504    0.3060 C.2       1 <0>        -0.1659
     15 C10         3.2341    6.4430    0.2313 C.2       1 <0>         0.1184
     16 N3          2.3742    5.4641    0.1288 N.2       1 <0>        -0.2782
     17 Cl1         3.2180    9.2346    0.4570 Cl        1 <0>        -0.0116
     18 H1          2.1170    1.2499   -0.0693 H         1 <0>         0.1598
     19 H2          2.0955    3.7093   -0.0567 H         1 <0>         0.1919
     20 H3         -2.1916    3.6501    0.1006 H         1 <0>         0.1676
     21 H4          0.0021   -0.0041    0.0015 H         1 <0>         0.1626
     22 H5          0.3947    8.0763    0.2705 H         1 <0>         0.2014
     23 H6          4.3087    6.3393    0.2591 H         1 <0>         0.2119
@<TRIPOS>BOND
     1    1    6 ar
     2    1    2 ar
     3    1   18 1
     4    2    3 ar
     5    2   19 1
     6    3    4 ar
     7    3   10 1
     8    4    5 ar
     9    4   20 1
    10    5    6 ar
    11    5    7 1
    12    6   21 1
    13    7    8 2
    14    7    9 1
    15   10   11 2
    16   10   12 am
    17   12   16 1
    18   12   13 1
    19   13   14 2
    20   13   22 1
    21   14   15 1
    22   14   17 1
    23   15   16 2
    24   15   23 1
@<TRIPOS>MOLECULE
ZINC00037188
   24    25     0     0     0
SMALL
USER_CHARGES
(4-bromopyrazol-1-yl)-(p-tolyl)methanone
@<TRIPOS>ATOM
      1 C1          7.0963    3.7277    0.3894 C.3       1 <0>        -0.1242
      2 C2          5.5995    3.8725    0.2902 C.ar      1 <0>        -0.0421
      3 C3          5.0273    5.1323    0.3020 C.ar      1 <0>        -0.1395
      4 C4          3.6581    5.2723    0.2116 C.ar      1 <0>        -0.0445
      5 C5          2.8489    4.1386    0.1082 C.ar      1 <0>        -0.1654
      6 C6          3.4329    2.8699    0.1026 C.ar      1 <0>        -0.0675
      7 C7          4.8039    2.7450    0.1880 C.ar      1 <0>        -0.1395
      8 C8          1.3823    4.2805    0.0115 C.2       1 <0>         0.6018
      9 O1          0.8843    5.3836   -0.0912 O.2       1 <0>        -0.4718
     10 N1          0.5962    3.1860    0.0371 N.am      1 <0>        -0.3660
     11 C9         -0.7663    3.1759    0.0595 C.2       1 <0>         0.1236
     12 C10        -1.1643    1.8845    0.0744 C.2       1 <0>        -0.2249
     13 C11        -0.0168    1.0782    0.0709 C.2       1 <0>         0.1185
     14 N2          1.0337    1.8551    0.0449 N.2       1 <0>        -0.2687
     15 Br1        -2.9533    1.2725    0.1009 Br        1 <0>         0.0050
     16 H1          7.3851    3.6504    1.4376 H         1 <0>         0.0783
     17 H2          7.4103    2.8289   -0.1412 H         1 <0>         0.0723
     18 H3          7.5760    4.5991   -0.0563 H         1 <0>         0.0718
     19 H4          5.6542    6.0081    0.3820 H         1 <0>         0.1333
     20 H5          3.2128    6.2562    0.2202 H         1 <0>         0.1366
     21 H6          2.8127    1.9889    0.0271 H         1 <0>         0.1744
     22 H7          5.2571    1.7647    0.1793 H         1 <0>         0.1319
     23 H8         -1.4109    4.0424    0.0603 H         1 <0>         0.1984
     24 H9         -0.0037   -0.0016    0.0829 H         1 <0>         0.2080
@<TRIPOS>BOND
     1    1    2 1
     2    1   16 1
     3    1   17 1
     4    1   18 1
     5    2    7 ar
     6    2    3 ar
     7    3    4 ar
     8    3   19 1
     9    4    5 ar
    10    4   20 1
    11    5    6 ar
    12    5    8 1
    13    6    7 ar
    14    6   21 1
    15    7   22 1
    16    8    9 2
    17    8   10 am
    18   10   14 1
    19   10   11 1
    20   11   12 2
    21   11   23 1
    22   12   13 1
    23   12   15 1
    24   13   14 2
    25   13   24 1
@<TRIPOS>MOLECULE
ZINC00037156
   21    22     0     0     0
SMALL
USER_CHARGES
(3,4-dichlorophenyl)-pyrazol-1-yl-methanone
@<TRIPOS>ATOM
      1 C1         -0.0148    1.4029    0.0670 C.2       1 <0>        -0.2423
      2 C2          0.0020    0.0012    0.0648 C.2       1 <0>         0.0972
      3 N1          1.2464   -0.3966    0.0307 N.2       1 <0>        -0.2906
      4 N2          2.0695    0.7368    0.0098 N.am      1 <0>        -0.3751
      5 C3          1.2645    1.8353    0.0329 C.2       1 <0>         0.0795
      6 C4          3.4168    0.7398   -0.0266 C.2       1 <0>         0.6044
      7 O1          4.0190    1.7886   -0.1401 O.2       1 <0>        -0.4707
      8 C5          4.1604   -0.5314    0.0714 C.ar      1 <0>        -0.1412
      9 C6          5.5547   -0.5231    0.1636 C.ar      1 <0>        -0.0347
     10 C7          6.2440   -1.7134    0.2549 C.ar      1 <0>        -0.1153
     11 C8          5.5578   -2.9167    0.2554 C.ar      1 <0>         0.0034
     12 C9          4.1746   -2.9324    0.1648 C.ar      1 <0>        -0.0505
     13 C10         3.4729   -1.7473    0.0782 C.ar      1 <0>        -0.0543
     14 Cl1         3.3232   -4.4453    0.1674 Cl        1 <0>        -0.0360
     15 Cl2         6.4335   -4.4112    0.3707 Cl        1 <0>        -0.0345
     16 H1         -0.8958    2.0273    0.0876 H         1 <0>         0.1659
     17 H2         -0.8660   -0.6410    0.0881 H         1 <0>         0.2017
     18 H3          1.5900    2.8651    0.0254 H         1 <0>         0.1900
     19 H4          6.0913    0.4142    0.1629 H         1 <0>         0.1536
     20 H5          7.3217   -1.7077    0.3258 H         1 <0>         0.1547
     21 H6          2.3950   -1.7600    0.0122 H         1 <0>         0.1949
@<TRIPOS>BOND
     1    1    5 2
     2    1    2 1
     3    1   16 1
     4    2    3 2
     5    2   17 1
     6    3    4 1
     7    4    5 1
     8    4    6 am
     9    5   18 1
    10    6    7 2
    11    6    8 1
    12    8   13 ar
    13    8    9 ar
    14    9   10 ar
    15    9   19 1
    16   10   11 ar
    17   10   20 1
    18   11   12 ar
    19   11   15 1
    20   12   13 ar
    21   12   14 1
    22   13   21 1
@<TRIPOS>MOLECULE
ZINC00068809
   37    38     0     0     0
SMALL
USER_CHARGES
4-methoxy-N'-(2-phenylacetyl)-benzohydrazide
@<TRIPOS>ATOM
      1 C1          0.1542   -4.5581    9.5303 C.3       1 <0>         0.0227
      2 O1          0.1577   -5.5366    8.4889 O.3       1 <0>        -0.3106
      3 C2          0.1394   -5.0774    7.2119 C.ar      1 <0>         0.1618
      4 C3          0.1416   -5.9765    6.1519 C.ar      1 <0>        -0.1594
      5 C4          0.1231   -5.5146    4.8548 C.ar      1 <0>        -0.0114
      6 C5          0.1020   -4.1400    4.6050 C.ar      1 <0>        -0.1735
      7 C6          0.1056   -3.2393    5.6733 C.ar      1 <0>        -0.0412
      8 C7          0.1180   -3.7093    6.9676 C.ar      1 <0>        -0.2160
      9 C8          0.0820   -3.6405    3.2162 C.2       1 <0>         0.5674
     10 O2          0.0839   -4.4256    2.2877 O.2       1 <0>        -0.5374
     11 N1          0.0617   -2.3143    2.9772 N.am      1 <0>        -0.5226
     12 N2          0.0428   -1.8402    1.6590 N.am      1 <0>        -0.5237
     13 C9          0.0225   -0.5140    1.4200 C.2       1 <0>         0.5155
     14 O3          0.0206    0.2691    2.3461 O.2       1 <0>        -0.5276
     15 C10         0.0021   -0.0041    0.0020 C.3       1 <0>        -0.0899
     16 C11        -0.0184    1.5028    0.0103 C.ar      1 <0>        -0.0732
     17 C12        -1.2248    2.1776    0.0197 C.ar      1 <0>        -0.1034
     18 C13        -1.2435    3.5598    0.0322 C.ar      1 <0>        -0.1189
     19 C14        -0.0559    4.2672    0.0251 C.ar      1 <0>        -0.1161
     20 C15         1.1505    3.5924    0.0100 C.ar      1 <0>        -0.1190
     21 C16         1.1693    2.2102    0.0028 C.ar      1 <0>        -0.1033
     22 H1          1.0347   -3.9228    9.4349 H         1 <0>         0.0601
     23 H2         -0.7450   -3.9470    9.4517 H         1 <0>         0.0601
     24 H3          0.1701   -5.0581   10.4987 H         1 <0>         0.1052
     25 H4          0.1583   -7.0389    6.3459 H         1 <0>         0.1427
     26 H5          0.1245   -6.2138    4.0318 H         1 <0>         0.1470
     27 H6          0.0942   -2.1760    5.4842 H         1 <0>         0.1297
     28 H7          0.1156   -3.0139    7.7939 H         1 <0>         0.1383
     29 H8          0.0602   -1.6880    3.7179 H         1 <0>         0.4307
     30 H9          0.0443   -2.4665    0.9183 H         1 <0>         0.4333
     31 H10        -0.8878   -0.3767   -0.5053 H         1 <0>         0.1113
     32 H11         0.8920   -0.3525   -0.5222 H         1 <0>         0.1113
     33 H12        -2.1527    1.6249    0.0211 H         1 <0>         0.1207
     34 H13        -2.1860    4.0870    0.0437 H         1 <0>         0.1232
     35 H14        -0.0705    5.3471    0.0311 H         1 <0>         0.1225
     36 H15         2.0784    4.1450    0.0041 H         1 <0>         0.1232
     37 H16         2.1118    1.6830   -0.0091 H         1 <0>         0.1207
@<TRIPOS>BOND
     1    1    2 1
     2    1   22 1
     3    1   23 1
     4    1   24 1
     5    2    3 1
     6    3    8 ar
     7    3    4 ar
     8    4    5 ar
     9    4   25 1
    10    5    6 ar
    11    5   26 1
    12    6    7 ar
    13    6    9 1
    14    7    8 ar
    15    7   27 1
    16    8   28 1
    17    9   10 2
    18    9   11 am
    19   11   12 1
    20   11   29 1
    21   12   13 am
    22   12   30 1
    23   13   14 2
    24   13   15 1
    25   15   16 1
    26   15   31 1
    27   15   32 1
    28   16   21 ar
    29   16   17 ar
    30   17   18 ar
    31   17   33 1
    32   18   19 ar
    33   18   34 1
    34   19   20 ar
    35   19   35 1
    36   20   21 ar
    37   20   36 1
    38   21   37 1
@<TRIPOS>MOLECULE
ZINC00078678
   26    27     0     0     0
SMALL
USER_CHARGES
(3-nitropyrazol-1-yl)-(p-tolyl)methanone
@<TRIPOS>ATOM
      1 C1         -0.0763    5.7484    0.0285 C.3       1 <0>        -0.1257
      2 C2         -0.0558    4.2416    0.0218 C.ar      1 <0>        -0.0363
      3 C3          1.1535    3.5693    0.0409 C.ar      1 <0>        -0.1381
      4 C4          1.1798    2.1902    0.0349 C.ar      1 <0>        -0.0402
      5 C5         -0.0181    1.4724    0.0091 C.ar      1 <0>        -0.1731
      6 C6         -1.2349    2.1575   -0.0158 C.ar      1 <0>        -0.0666
      7 C7         -1.2463    3.5368   -0.0037 C.ar      1 <0>        -0.1351
      8 C8          0.0021   -0.0041    0.0020 C.2       1 <0>         0.6028
      9 O1          1.0573   -0.5966   -0.1021 O.2       1 <0>        -0.4538
     10 N1         -1.1504   -0.6943    0.1110 N.am      1 <0>        -0.3402
     11 C9         -1.2694   -2.0473    0.2133 C.2       1 <0>         0.1024
     12 C10        -2.5862   -2.3353    0.3028 C.2       1 <0>        -0.1984
     13 C11        -3.2974   -1.1282    0.2545 C.2       1 <0>         0.1586
     14 N2         -2.4400   -0.1480    0.1456 N.2       1 <0>        -0.1934
     15 N3         -4.7694   -0.9875    0.3210 N.pl3     1 <0>         0.0465
     16 O2         -5.4716   -1.9769    0.4274 O.2       1 <0>        -0.1102
     17 O3         -5.2784    0.1179    0.2694 O.3       1 <0>        -0.1111
     18 H1         -0.0624    6.1165   -0.9973 H         1 <0>         0.0803
     19 H2         -0.9804    6.0973    0.5275 H         1 <0>         0.0742
     20 H3          0.7991    6.1214    0.5602 H         1 <0>         0.0732
     21 H4          2.0790    4.1256    0.0608 H         1 <0>         0.1360
     22 H5          2.1243    1.6668    0.0504 H         1 <0>         0.1387
     23 H6         -2.1647    1.6087   -0.0400 H         1 <0>         0.1678
     24 H7         -2.1866    4.0679   -0.0185 H         1 <0>         0.1359
     25 H8         -0.4583   -2.7603    0.2219 H         1 <0>         0.2141
     26 H9         -3.0155   -3.3220    0.3957 H         1 <0>         0.1914
@<TRIPOS>BOND
     1    1    2 1
     2    1   18 1
     3    1   19 1
     4    1   20 1
     5    2    7 ar
     6    2    3 ar
     7    3    4 ar
     8    3   21 1
     9    4    5 ar
    10    4   22 1
    11    5    6 ar
    12    5    8 1
    13    6    7 ar
    14    6   23 1
    15    7   24 1
    16    8    9 2
    17    8   10 am
    18   10   14 1
    19   10   11 1
    20   11   12 2
    21   11   25 1
    22   12   13 1
    23   12   26 1
    24   13   14 2
    25   13   15 1
    26   15   16 2
    27   15   17 1
@<TRIPOS>MOLECULE
ZINC13436496
   18    18     0     0     0
SMALL
USER_CHARGES

@<TRIPOS>ATOM
      1 C1         -0.0267    1.4342   -0.0055 C.ar      1 <0>        -0.0489
      2 C2          1.1859    2.0964   -0.0127 C.ar      1 <0>        -0.1877
      3 C3          2.3674    1.3494   -0.0145 C.ar      1 <0>         0.3585
      4 N1          2.3251    0.0206   -0.0094 N.ar      1 <0>        -0.4964
      5 C4          1.1800   -0.6335   -0.0025 C.ar      1 <0>         0.1359
      6 C5         -0.0246    0.0439   -0.0003 C.ar      1 <0>        -0.1212
      7 Cl1        -1.5225   -0.8337    0.0094 Cl        1 <0>        -0.0602
      8 N2          3.5738    1.9891   -0.0221 N.2       1 <0>        -0.6334
      9 C6          4.1171    2.3813    1.1092 C.2       1 <0>         0.6772
     10 N3          3.5305    2.0489    2.3026 N.pl3     1 <0>        -0.8787
     11 N4          5.2700    3.1225    1.0952 N.pl3     1 <0>        -0.8355
     12 H1         -0.9559    1.9846    0.0005 H         1 <0>         0.1430
     13 H2          1.2205    3.1759   -0.0172 H         1 <0>         0.1387
     14 H3          1.1836   -1.7135    0.0016 H         1 <0>         0.1628
     15 H4          2.7587    1.4614    2.3168 H         1 <0>         0.4126
     16 H5          5.6851    3.3577    0.2506 H         1 <0>         0.4239
     17 H6          5.6707    3.4118    1.9298 H         1 <0>         0.4100
     18 H7          3.8871    2.4012    3.1331 H         1 <0>         0.3995
@<TRIPOS>BOND
     1    1    6 ar
     2    1    2 ar
     3    1   12 1
     4    2    3 ar
     5    2   13 1
     6    3    4 ar
     7    3    8 1
     8    4    5 ar
     9    5    6 ar
    10    5   14 1
    11    6    7 1
    12    8    9 2
    13    9   10 1
    14    9   11 1
    15   10   15 1
    16   10   18 1
    17   11   16 1
    18   11   17 1
@<TRIPOS>MOLECULE
ZINC01665651
   45    46     0     0     0
SMALL
USER_CHARGES
4-[3-(4-amidino-2-bromo-phenoxy)propoxy]-3-bromo-benzamidine
@<TRIPOS>ATOM
      1 C1         -2.4793   -0.7812    0.0177 C.ar      1 <0>         0.0005
      2 C2         -1.1100   -0.6255    0.0107 C.ar      1 <0>        -0.2031
      3 C3         -0.5539    0.6472    0.0118 C.ar      1 <0>         0.2244
      4 C4         -1.3757    1.7682    0.0248 C.ar      1 <0>        -0.1336
      5 C5         -2.7463    1.6196    0.0369 C.ar      1 <0>         0.0061
      6 C6         -3.3078    0.3418    0.0362 C.ar      1 <0>        -0.1915
      7 C7         -4.7779    0.1782    0.0491 C.cat     1 <0>         0.6043
      8 N1         -5.3307   -1.0842    0.0484 N.pl3     1 <0>        -0.7807
      9 Br1        -0.6132    3.4986    0.0257 Br        1 <0>         0.0159
     10 O1          0.7957    0.7968   -0.0006 O.3       1 <0>        -0.2793
     11 C8          1.5806   -0.3972   -0.0142 C.3       1 <0>         0.0556
     12 C9          3.0661   -0.0310   -0.0267 C.3       1 <0>        -0.1262
     13 C10         3.9065   -1.3094   -0.0413 C.3       1 <0>         0.0556
     14 O2          5.2940   -0.9672   -0.0529 O.3       1 <0>        -0.2793
     15 C11         6.1821   -1.9943   -0.0667 C.ar      1 <0>         0.2244
     16 C12         5.7247   -3.3058   -0.0689 C.ar      1 <0>        -0.2017
     17 C13         6.6231   -4.3507   -0.0833 C.ar      1 <0>        -0.0045
     18 C14         7.9942   -4.0903   -0.0957 C.ar      1 <0>        -0.1917
     19 C15         8.4510   -2.7715   -0.0934 C.ar      1 <0>         0.0112
     20 C16         7.5468   -1.7308   -0.0843 C.ar      1 <0>        -0.1349
     21 Br2         8.1637    0.0568   -0.0884 Br        1 <0>         0.0155
     22 C17         8.9612   -5.2097   -0.1108 C.cat     1 <0>         0.6045
     23 N2         10.3148   -4.9508   -0.1229 N.pl3     1 <0>        -0.7786
     24 H1         -2.9107   -1.7712    0.0127 H         1 <0>         0.1484
     25 H2         -0.4685   -1.4943   -0.0004 H         1 <0>         0.1590
     26 H3         -3.3846    2.4908    0.0464 H         1 <0>         0.1526
     27 H4         -6.5257    1.2234    0.0700 H         1 <0>         0.4475
     28 H5         -4.7559   -1.8655    0.0396 H         1 <0>         0.4414
     29 H6         -6.2948   -1.1915    0.0569 H         1 <0>         0.4338
     30 H7          1.3595   -0.9877    0.8749 H         1 <0>         0.0806
     31 H8          1.3423   -0.9785   -0.9048 H         1 <0>         0.0806
     32 H9          3.2873    0.5595   -0.9158 H         1 <0>         0.0991
     33 H10         3.3045    0.5504    0.8641 H         1 <0>         0.0991
     34 H11         3.6853   -1.8997    0.8479 H         1 <0>         0.0806
     35 H12         3.6683   -1.8907   -0.9319 H         1 <0>         0.0806
     36 H13         4.6637   -3.5069   -0.0598 H         1 <0>         0.1594
     37 H14         6.2666   -5.3701   -0.0854 H         1 <0>         0.1469
     38 H15         9.5113   -2.5664   -0.1034 H         1 <0>         0.1544
     39 H16         9.0888   -7.2423   -0.1218 H         1 <0>         0.4471
     40 H17        10.6333   -4.0347   -0.1217 H         1 <0>         0.4431
     41 H18        10.9488   -5.6848   -0.1328 H         1 <0>         0.4341
     42 N3         -5.5074    1.2841    0.0608 N.pl3     1 <0>        -0.7586
     43 H19        -5.0479    2.2023    0.0607 H         1 <0>         0.4599
     44 N4          8.4624   -6.4371   -0.1118 N.pl3     1 <0>        -0.7607
     45 H20         7.4454   -6.5780   -0.1025 H         1 <0>         0.4581
@<TRIPOS>BOND
     1    1    6 ar
     2    1    2 ar
     3    1   24 1
     4    2    3 ar
     5    2   25 1
     6    3    4 ar
     7    3   10 1
     8    4    5 ar
     9    4    9 1
    10    5    6 ar
    11    5   26 1
    12    6    7 1
    13    7    8 1
    14    7   42 2
    15    8   28 1
    16    8   29 1
    17   10   11 1
    18   11   12 1
    19   11   30 1
    20   11   31 1
    21   12   13 1
    22   12   32 1
    23   12   33 1
    24   13   14 1
    25   13   34 1
    26   13   35 1
    27   14   15 1
    28   15   20 ar
    29   15   16 ar
    30   16   17 ar
    31   16   36 1
    32   17   18 ar
    33   17   37 1
    34   18   19 ar
    35   18   22 1
    36   19   20 ar
    37   19   38 1
    38   20   21 1
    39   22   23 1
    40   22   44 2
    41   23   40 1
    42   23   41 1
    43   27   42 1
    44   39   44 1
    45   42   43 1
    46   44   45 1
@<TRIPOS>MOLECULE
ZINC00037095
   27    28     0     0     0
SMALL
USER_CHARGES
methyl 2-(4-chlorobenzoyl)pyrazole-3-carboxylate
@<TRIPOS>ATOM
      1 C1         -0.0255    1.4477    0.0077 C.3       1 <0>         0.0390
      2 O1         -0.0031   -0.0041    0.0005 O.3       1 <0>        -0.3572
      3 C2          0.5961   -0.6018   -1.0489 C.2       1 <0>         0.5307
      4 O2          1.0864    0.0722   -1.9336 O.2       1 <0>        -0.4725
      5 C3          0.6566   -2.0687   -1.1231 C.2       1 <0>         0.0494
      6 C4          1.1411   -2.8176   -2.1740 C.2       1 <0>        -0.1506
      7 C5          1.0146   -4.1645   -1.8290 C.2       1 <0>         0.0579
      8 N1          0.4761   -4.2478   -0.6400 N.2       1 <0>        -0.2248
      9 N2          0.2354   -2.9540   -0.1609 N.am      1 <0>        -0.3836
     10 C6         -0.3104   -2.6351    1.0294 C.2       1 <0>         0.6235
     11 O3         -1.5182   -2.5953    1.1526 O.2       1 <0>        -0.4120
     12 C7          0.5593   -2.3342    2.1831 C.ar      1 <0>        -0.1488
     13 C8          1.9462   -2.2826    2.0216 C.ar      1 <0>        -0.0492
     14 C9          2.7528   -1.9958    3.1023 C.ar      1 <0>        -0.1191
     15 C10         2.1917   -1.7704    4.3487 C.ar      1 <0>         0.0034
     16 C11         0.8176   -1.8252    4.5166 C.ar      1 <0>        -0.1193
     17 C12        -0.0003   -2.1054    3.4427 C.ar      1 <0>        -0.0331
     18 Cl1         3.2148   -1.4170    5.7059 Cl        1 <0>        -0.0503
     19 H1          0.9964    1.8269   -0.0011 H         1 <0>         0.0705
     20 H2         -0.5540    1.8073   -0.8752 H         1 <0>         0.0706
     21 H3         -0.5356    1.7988    0.9047 H         1 <0>         0.1086
     22 H4          1.5478   -2.4318   -3.0972 H         1 <0>         0.1770
     23 H5          1.3093   -5.0011   -2.4451 H         1 <0>         0.2099
     24 H6          2.3851   -2.4626    1.0514 H         1 <0>         0.1352
     25 H7          3.8247   -1.9513    2.9778 H         1 <0>         0.1458
     26 H8          0.3863   -1.6478    5.4907 H         1 <0>         0.1486
     27 H9         -1.0714   -2.1475    3.5748 H         1 <0>         0.1503
@<TRIPOS>BOND
     1    1    2 1
     2    1   19 1
     3    1   20 1
     4    1   21 1
     5    2    3 1
     6    3    4 2
     7    3    5 1
     8    5    9 1
     9    5    6 2
    10    6    7 1
    11    6   22 1
    12    7    8 2
    13    7   23 1
    14    8    9 1
    15    9   10 am
    16   10   11 2
    17   10   12 1
    18   12   17 ar
    19   12   13 ar
    20   13   14 ar
    21   13   24 1
    22   14   15 ar
    23   14   25 1
    24   15   16 ar
    25   15   18 1
    26   16   17 ar
    27   16   26 1
    28   17   27 1
@<TRIPOS>MOLECULE
ZINC00045767
   39    41     0     0     0
SMALL
USER_CHARGES

@<TRIPOS>ATOM
      1 C1         -0.1653    1.5515   -0.1179 C.3       1 <0>        -0.1208
      2 C2         -0.1598    0.0446   -0.1054 C.ar      1 <0>        -0.0591
      3 C3         -1.3026   -0.6454    0.2600 C.ar      1 <0>        -0.1260
      4 C4         -1.3046   -2.0244    0.2737 C.ar      1 <0>        -0.0699
      5 C5         -0.1496   -2.7248   -0.0825 C.ar      1 <0>        -0.1552
      6 C6          1.0000   -2.0221   -0.4501 C.ar      1 <0>        -0.0368
      7 C7          0.9861   -0.6428   -0.4648 C.ar      1 <0>        -0.1226
      8 C8          2.2509   -2.7690   -0.8354 C.3       1 <0>        -0.1242
      9 C9         -0.1440   -4.2023   -0.0697 C.2       1 <0>         0.4892
     10 O1         -0.0882   -4.8008    0.9868 O.2       1 <0>        -0.4098
     11 C10        -0.2062   -4.9521   -1.3409 C.2       1 <0>         0.0460
     12 C11        -0.3130   -6.3557   -1.4728 C.2       1 <0>        -0.2021
     13 C12        -0.3411   -6.6474   -2.7878 C.2       1 <0>         0.0803
     14 N1         -0.2557   -5.4750   -3.4791 N.am      1 <0>        -0.3613
     15 N2         -0.1775   -4.4292   -2.5503 N.2       1 <0>        -0.2199
     16 C13        -0.2520   -5.3449   -4.8205 C.2       1 <0>         0.6032
     17 O2         -0.2398   -6.3332   -5.5265 O.2       1 <0>        -0.4667
     18 C14        -0.2630   -4.0023   -5.4313 C.ar      1 <0>        -0.1719
     19 C15        -0.1328   -2.8654   -4.6288 C.ar      1 <0>        -0.0435
     20 C16        -0.1438   -1.6137   -5.2050 C.ar      1 <0>        -0.1687
     21 C17        -0.2836   -1.4808   -6.5784 C.ar      1 <0>         0.1429
     22 C18        -0.4135   -2.6053   -7.3797 C.ar      1 <0>        -0.1710
     23 C19        -0.3977   -3.8623   -6.8154 C.ar      1 <0>        -0.0185
     24 F1         -0.2936   -0.2511   -7.1378 F         1 <0>        -0.1296
     25 H1         -0.4792    1.9055   -1.0999 H         1 <0>         0.0754
     26 H2         -0.8582    1.9186    0.6392 H         1 <0>         0.0701
     27 H3          0.8374    1.9203    0.0978 H         1 <0>         0.0698
     28 H4         -2.1947   -0.1026    0.5354 H         1 <0>         0.1299
     29 H5         -2.1970   -2.5616    0.5594 H         1 <0>         0.1281
     30 H6          1.8728   -0.0981   -0.7535 H         1 <0>         0.1300
     31 H7          2.2865   -2.8836   -1.9188 H         1 <0>         0.0792
     32 H8          3.1251   -2.2108   -0.5002 H         1 <0>         0.0777
     33 H9          2.2459   -3.7526   -0.3659 H         1 <0>         0.0615
     34 H10        -0.3626   -7.0681   -0.6627 H         1 <0>         0.1738
     35 H11        -0.4175   -7.6350   -3.2183 H         1 <0>         0.1977
     36 H12        -0.0243   -2.9677   -3.5591 H         1 <0>         0.1819
     37 H13        -0.0437   -0.7345   -4.5859 H         1 <0>         0.1453
     38 H14        -0.5228   -2.4957   -8.4486 H         1 <0>         0.1476
     39 H15        -0.4938   -4.7375   -7.4409 H         1 <0>         0.1481
@<TRIPOS>BOND
     1    1    2 1
     2    1   25 1
     3    1   26 1
     4    1   27 1
     5    2    7 ar
     6    2    3 ar
     7    3    4 ar
     8    3   28 1
     9    4    5 ar
    10    4   29 1
    11    5    6 ar
    12    5    9 1
    13    6    7 ar
    14    6    8 1
    15    7   30 1
    16    8   31 1
    17    8   32 1
    18    8   33 1
    19    9   10 2
    20    9   11 1
    21   11   15 2
    22   11   12 1
    23   12   13 2
    24   12   34 1
    25   13   14 1
    26   13   35 1
    27   14   15 1
    28   14   16 am
    29   16   17 2
    30   16   18 1
    31   18   23 ar
    32   18   19 ar
    33   19   20 ar
    34   19   36 1
    35   20   21 ar
    36   20   37 1
    37   21   22 ar
    38   21   24 1
    39   22   23 ar
    40   22   38 1
    41   23   39 1
@<TRIPOS>MOLECULE
ZINC00115253
   35    37     0     0     0
SMALL
USER_CHARGES
1-benzoyl-N-phenyl-pyrazole-3-carboxamide
@<TRIPOS>ATOM
      1 C1         -5.4448    3.3042    0.4714 C.ar      1 <0>        -0.0769
      2 C2         -4.9767    4.6062    0.4962 C.ar      1 <0>        -0.1355
      3 C3         -3.6253    4.8588    0.3857 C.ar      1 <0>        -0.0491
      4 C4         -2.7285    3.7966    0.2486 C.ar      1 <0>        -0.1584
      5 C5         -3.2087    2.4852    0.2185 C.ar      1 <0>        -0.0751
      6 C6         -4.5622    2.2471    0.3354 C.ar      1 <0>        -0.1369
      7 C7         -1.2806    4.0592    0.1298 C.2       1 <0>         0.5999
      8 O1         -0.8755    5.2009    0.0435 O.2       1 <0>        -0.4673
      9 N1         -0.4082    3.0319    0.1173 N.am      1 <0>        -0.3576
     10 C8          0.9513    3.1350    0.1133 C.2       1 <0>         0.0820
     11 C9          1.4607    1.8875    0.1000 C.2       1 <0>        -0.1938
     12 C10         0.3800    0.9767    0.0956 C.2       1 <0>         0.0725
     13 N2         -0.7393    1.6708    0.1003 N.2       1 <0>        -0.2441
     14 C11         0.4873   -0.4972    0.0818 C.2       1 <0>         0.5994
     15 O2          1.5814   -1.0270    0.0730 O.2       1 <0>        -0.4920
     16 N3         -0.6280   -1.2540    0.0790 N.am      1 <0>        -0.6565
     17 C12        -0.5287   -2.6451   -0.0247 C.ar      1 <0>         0.1367
     18 C13        -1.4930   -3.3616   -0.7217 C.ar      1 <0>        -0.1394
     19 C14        -1.3890   -4.7347   -0.8270 C.ar      1 <0>        -0.1015
     20 C15        -0.3327   -5.3975   -0.2293 C.ar      1 <0>        -0.1296
     21 C16         0.6260   -4.6876    0.4703 C.ar      1 <0>        -0.1014
     22 C17         0.5312   -3.3137    0.5741 C.ar      1 <0>        -0.1188
     23 H1         -6.5041    3.1121    0.5583 H         1 <0>         0.1308
     24 H2         -5.6713    5.4264    0.6020 H         1 <0>         0.1343
     25 H3         -3.2614    5.8755    0.4049 H         1 <0>         0.1371
     26 H4         -2.5213    1.6595    0.1083 H         1 <0>         0.1685
     27 H5         -4.9345    1.2334    0.3164 H         1 <0>         0.1325
     28 H6          1.5192    4.0537    0.1190 H         1 <0>         0.1990
     29 H7          2.5093    1.6294    0.0935 H         1 <0>         0.1761
     30 H8         -1.4994   -0.8338    0.1488 H         1 <0>         0.4172
     31 H9         -2.3208   -2.8451   -1.1846 H         1 <0>         0.1271
     32 H10        -2.1361   -5.2920   -1.3726 H         1 <0>         0.1282
     33 H11        -0.2560   -6.4718   -0.3093 H         1 <0>         0.1251
     34 H12         1.4500   -5.2082    0.9356 H         1 <0>         0.1279
     35 H13         1.2803   -2.7599    1.1206 H         1 <0>         0.1396
@<TRIPOS>BOND
     1    1    6 ar
     2    1    2 ar
     3    1   23 1
     4    2    3 ar
     5    2   24 1
     6    3    4 ar
     7    3   25 1
     8    4    5 ar
     9    4    7 1
    10    5    6 ar
    11    5   26 1
    12    6   27 1
    13    7    8 2
    14    7    9 am
    15    9   13 1
    16    9   10 1
    17   10   11 2
    18   10   28 1
    19   11   12 1
    20   11   29 1
    21   12   13 2
    22   12   14 1
    23   14   15 2
    24   14   16 am
    25   16   17 1
    26   16   30 1
    27   17   22 ar
    28   17   18 ar
    29   18   19 ar
    30   18   31 1
    31   19   20 ar
    32   19   32 1
    33   20   21 ar
    34   20   33 1
    35   21   22 ar
    36   21   34 1
    37   22   35 1
@<TRIPOS>MOLECULE
ZINC00037189
   30    32     0     0     0
SMALL
USER_CHARGES
[3-(2-chlorophenyl)-5-methyl-isoxazol-4-yl]-pyrazol-1-yl-methanone
@<TRIPOS>ATOM
      1 C1         -0.0716    0.9569    0.0255 C.3       1 <0>        -0.0832
      2 C2         -0.7407    1.5081    1.2582 C.2       1 <0>         0.0402
      3 C3         -0.1681    1.6858    2.4940 C.2       1 <0>        -0.2431
      4 C4         -1.2786    2.2480    3.2921 C.2       1 <0>         0.1035
      5 N1         -2.2905    2.3191    2.4654 N.2       1 <0>        -0.3210
      6 O1         -2.0044    1.9249    1.3617 O.3       1 <0>         0.1148
      7 C5         -1.2514    2.6456    4.7205 C.ar      1 <0>        -0.0207
      8 C6         -0.6958    1.7935    5.6735 C.ar      1 <0>        -0.0849
      9 C7         -0.6732    2.1686    7.0012 C.ar      1 <0>        -0.1128
     10 C8         -1.2005    3.3879    7.3881 C.ar      1 <0>        -0.0908
     11 C9         -1.7535    4.2379    6.4481 C.ar      1 <0>        -0.1107
     12 C10        -1.7764    3.8761    5.1148 C.ar      1 <0>        -0.0056
     13 Cl1        -2.4634    4.9475    3.9342 Cl        1 <0>        -0.0473
     14 C11         1.2087    1.3905    2.9181 C.2       1 <0>         0.6492
     15 O2          1.5048    0.2699    3.2836 O.2       1 <0>        -0.4612
     16 N2          2.1421    2.3626    2.9014 N.am      1 <0>        -0.3734
     17 C12         3.4663    2.2088    3.1791 C.2       1 <0>         0.0668
     18 C13         4.0540    3.4182    3.0474 C.2       1 <0>        -0.2362
     19 C14         3.0641    4.3433    2.6884 C.2       1 <0>         0.0843
     20 N3          1.9225    3.7133    2.6011 N.2       1 <0>        -0.2647
     21 H1         -0.1183   -0.1320    0.0429 H         1 <0>         0.1018
     22 H2          0.9706    1.2755    0.0046 H         1 <0>         0.0906
     23 H3         -0.5830    1.3284   -0.8624 H         1 <0>         0.0988
     24 H4         -0.2841    0.8413    5.3734 H         1 <0>         0.1338
     25 H5         -0.2426    1.5090    7.7401 H         1 <0>         0.1377
     26 H6         -1.1803    3.6768    8.4285 H         1 <0>         0.1395
     27 H7         -2.1642    5.1881    6.7560 H         1 <0>         0.1419
     28 H8          3.9580    1.2869    3.4529 H         1 <0>         0.1886
     29 H9          5.1014    3.6349    3.1970 H         1 <0>         0.1649
     30 H10         3.2187    5.3978    2.5132 H         1 <0>         0.1991
@<TRIPOS>BOND
     1    1    2 1
     2    1   21 1
     3    1   22 1
     4    1   23 1
     5    2    6 1
     6    2    3 2
     7    3    4 1
     8    3   14 1
     9    4    5 2
    10    4    7 1
    11    5    6 1
    12    7   12 ar
    13    7    8 ar
    14    8    9 ar
    15    8   24 1
    16    9   10 ar
    17    9   25 1
    18   10   11 ar
    19   10   26 1
    20   11   12 ar
    21   11   27 1
    22   12   13 1
    23   14   15 2
    24   14   16 am
    25   16   20 1
    26   16   17 1
    27   17   18 2
    28   17   28 1
    29   18   19 1
    30   18   29 1
    31   19   20 2
    32   19   30 1
@<TRIPOS>MOLECULE
ZINC14960712
   42    44     0     0     0
SMALL
USER_CHARGES

@<TRIPOS>ATOM
      1 C1          0.0175    1.4212   -0.0202 C.ar      1 <0>        -0.0100
      2 C2          1.1831    2.1292   -0.0185 C.ar      1 <0>        -0.1302
      3 C3          2.4050    1.4440   -0.0242 C.ar      1 <0>         0.0412
      4 C4          2.4099    0.0268   -0.0316 C.ar      1 <0>        -0.1494
      5 C5          1.1976   -0.6677   -0.0332 C.ar      1 <0>         0.0525
      6 C6          0.0242    0.0294   -0.0276 C.ar      1 <0>        -0.6868
      7 S1         -1.5051   -0.8457   -0.0290 S.o2      1 <0>         2.6923
      8 O1         -1.2379   -2.1312    0.5145 O.2       1 <0>        -0.9546
      9 O2         -2.4749    0.0305    0.5284 O.2       1 <0>        -0.9552
     10 N1         -1.9333   -1.0806   -1.6114 N.pl3     1 <0>        -1.1082
     11 C7         -1.1074   -1.9272   -2.4759 C.3       1 <0>         0.1427
     12 C8         -0.1560   -1.0529   -3.3187 C.3       1 <0>        -0.1454
     13 C9         -0.0993   -1.7678   -4.6915 C.3       1 <0>        -0.1235
     14 C10        -1.5566   -2.2566   -4.8828 C.3       1 <0>        -0.1254
     15 C11        -1.9979   -2.6925   -3.4704 C.3       1 <0>        -0.1277
     16 C12         3.7019   -0.6583   -0.0369 C.ar      1 <0>         0.4307
     17 N2          4.8130    0.0674   -0.0346 N.ar      1 <0>        -0.5176
     18 C13         4.7973    1.3921   -0.0276 C.ar      1 <0>         0.1469
     19 C14         3.6450    2.1149   -0.0223 C.ar      1 <0>        -0.1313
     20 Cl1         3.7008    3.8499   -0.0139 Cl        1 <0>        -0.0502
     21 N3          3.7637   -2.0164   -0.0437 N.2       1 <0>        -0.6367
     22 C15         3.9046   -2.6748    1.0882 C.2       1 <0>         0.6946
     23 N4          3.8789   -2.0010    2.2801 N.pl3     1 <0>        -0.8729
     24 N5          4.0767   -4.0333    1.0733 N.pl3     1 <0>        -0.8283
     25 H1         -0.9250    1.9484   -0.0113 H         1 <0>         0.1451
     26 H2          1.1643    3.2090   -0.0132 H         1 <0>         0.1443
     27 H3          1.1890   -1.7477   -0.0393 H         1 <0>         0.1492
     28 H4         -2.7310   -0.6576   -1.9658 H         1 <0>         0.4203
     29 H5         -0.5333   -2.6297   -1.8717 H         1 <0>         0.0957
     30 H6         -0.5600   -0.0466   -3.4290 H         1 <0>         0.0768
     31 H7          0.8344   -1.0198   -2.8646 H         1 <0>         0.0702
     32 H8          0.1803   -1.0688   -5.4798 H         1 <0>         0.0697
     33 H9          0.5900   -2.6116   -4.6595 H         1 <0>         0.0713
     34 H10        -2.1867   -1.4446   -5.2458 H         1 <0>         0.0676
     35 H11        -1.5883   -3.1018   -5.5703 H         1 <0>         0.0696
     36 H12        -1.8553   -3.7663   -3.3495 H         1 <0>         0.0771
     37 H13        -3.0445   -2.4340   -3.3098 H         1 <0>         0.0759
     38 H14         5.7392    1.9205   -0.0261 H         1 <0>         0.1620
     39 H15         3.6815   -1.0514    2.2962 H         1 <0>         0.4134
     40 H16         4.0582   -2.4733    3.1082 H         1 <0>         0.4044
     41 H17         4.0949   -4.5106    0.2290 H         1 <0>         0.4264
     42 H18         4.1805   -4.5182    1.9069 H         1 <0>         0.4133
@<TRIPOS>BOND
     1    1    6 ar
     2    1    2 ar
     3    1   25 1
     4    2    3 ar
     5    2   26 1
     6    3   19 ar
     7    3    4 ar
     8    4    5 ar
     9    4   16 ar
    10    5    6 ar
    11    5   27 1
    12    6    7 1
    13    7    8 2
    14    7    9 2
    15    7   10 1
    16   10   11 1
    17   10   28 1
    18   11   15 1
    19   11   12 1
    20   11   29 1
    21   12   13 1
    22   12   30 1
    23   12   31 1
    24   13   14 1
    25   13   32 1
    26   13   33 1
    27   14   15 1
    28   14   34 1
    29   14   35 1
    30   15   36 1
    31   15   37 1
    32   16   17 ar
    33   16   21 1
    34   17   18 ar
    35   18   19 ar
    36   18   38 1
    37   19   20 1
    38   21   22 2
    39   22   23 1
    40   22   24 1
    41   23   39 1
    42   23   40 1
    43   24   41 1
    44   24   42 1
@<TRIPOS>MOLECULE
ZINC00037157
   26    27     0     0     0
SMALL
USER_CHARGES
(2-fluorophenyl)-(5-methyl-3-nitro-pyrazol-1-yl)-methanone
@<TRIPOS>ATOM
      1 C1          0.9631    6.5963   -0.1993 C.3       1 <0>        -0.1087
      2 C2         -0.1461    5.5764   -0.1726 C.2       1 <0>         0.1381
      3 C3         -1.4702    5.8353   -0.2414 C.2       1 <0>        -0.2073
      4 C4         -2.1538    4.6131   -0.1792 C.2       1 <0>         0.1670
      5 N1         -1.2735    3.6522   -0.0816 N.2       1 <0>        -0.2034
      6 N2          0.0045    4.2261   -0.0780 N.am      1 <0>        -0.3380
      7 C5          1.1737    3.5613    0.0095 C.2       1 <0>         0.6013
      8 O1          2.2173    4.1769    0.0973 O.2       1 <0>        -0.4397
      9 C6          1.1860    2.0865   -0.0014 C.ar      1 <0>        -0.2020
     10 C7         -0.0160    1.3737    0.0212 C.ar      1 <0>        -0.0460
     11 C8          0.0030   -0.0044    0.0104 C.ar      1 <0>        -0.1425
     12 C9          1.2086   -0.6849   -0.0233 C.ar      1 <0>        -0.0423
     13 C10         2.4029    0.0105   -0.0458 C.ar      1 <0>        -0.1705
     14 C11         2.4012    1.3935   -0.0344 C.ar      1 <0>         0.1727
     15 F1          3.5687    2.0730   -0.0556 F         1 <0>        -0.1139
     16 N3         -3.6234    4.4403   -0.2171 N.pl3     1 <0>         0.0464
     17 O2         -4.1071    3.3241   -0.1555 O.2       1 <0>        -0.1106
     18 O3         -4.3490    5.4142   -0.3099 O.3       1 <0>        -0.1095
     19 H1          1.2680    6.7745   -1.2305 H         1 <0>         0.0992
     20 H2          0.6101    7.5286    0.2415 H         1 <0>         0.1009
     21 H3          1.8133    6.2234    0.3718 H         1 <0>         0.1025
     22 H4         -1.9226    6.8124   -0.3255 H         1 <0>         0.1907
     23 H5         -0.9578    1.9017    0.0425 H         1 <0>         0.1768
     24 H6         -0.9257   -0.5555    0.0278 H         1 <0>         0.1444
     25 H7          1.2157   -1.7648   -0.0323 H         1 <0>         0.1449
     26 H8          3.3392   -0.5271   -0.0720 H         1 <0>         0.1497
@<TRIPOS>BOND
     1    1    2 1
     2    1   19 1
     3    1   20 1
     4    1   21 1
     5    2    6 1
     6    2    3 2
     7    3    4 1
     8    3   22 1
     9    4    5 2
    10    4   16 1
    11    5    6 1
    12    6    7 am
    13    7    8 2
    14    7    9 1
    15    9   14 ar
    16    9   10 ar
    17   10   11 ar
    18   10   23 1
    19   11   12 ar
    20   11   24 1
    21   12   13 ar
    22   12   25 1
    23   13   14 ar
    24   13   26 1
    25   14   15 1
    26   16   17 2
    27   16   18 1
@<TRIPOS>MOLECULE
ZINC03984065
   20    20     0     0     0
SMALL
USER_CHARGES

@<TRIPOS>ATOM
      1 C1          0.7155    0.2496    1.0935 C.ar      1 <0>        -0.0980
      2 C2          2.0675    0.4364    1.3047 C.ar      1 <0>        -0.0770
      3 C3          2.9811   -0.4639    0.7854 C.ar      1 <0>        -0.0260
      4 C4          2.5429   -1.5534    0.0532 C.ar      1 <0>        -0.0774
      5 C5          1.1920   -1.7448   -0.1609 C.ar      1 <0>        -0.1423
      6 C6          0.2732   -0.8431    0.3595 C.ar      1 <0>         0.0984
      7 N1         -1.0966   -1.0350    0.1443 N.pl3     1 <0>        -0.6320
      8 C7         -1.5416   -1.4973   -1.0658 C.cat     1 <0>         0.7463
      9 N2         -2.8291   -1.7958   -1.2323 N.pl3     1 <0>        -0.7851
     10 N3         -0.6869   -1.6486   -2.0762 N.pl3     1 <0>        -0.7947
     11 Cl1         4.6799   -0.2259    1.0523 Cl        1 <0>        -0.0326
     12 H1          0.0027    0.9503    1.5025 H         1 <0>         0.1500
     13 H2          2.4121    1.2860    1.8755 H         1 <0>         0.1548
     14 H3          3.2580   -2.2544   -0.3513 H         1 <0>         0.1538
     15 H4          0.8506   -2.5948   -0.7330 H         1 <0>         0.1446
     16 H5         -1.7307   -0.8405    0.8521 H         1 <0>         0.4449
     17 H6         -3.4515   -1.6856   -0.4965 H         1 <0>         0.4428
     18 H7          0.2043   -1.2698   -2.0184 H         1 <0>         0.4431
     19 H8         -0.9556   -2.1374   -2.8697 H         1 <0>         0.4418
     20 H9         -3.1442   -2.1232   -2.0892 H         1 <0>         0.4446
@<TRIPOS>BOND
     1    1    6 ar
     2    1    2 ar
     3    1   12 1
     4    2    3 ar
     5    2   13 1
     6    3    4 ar
     7    3   11 1
     8    4    5 ar
     9    4   14 1
    10    5    6 ar
    11    5   15 1
    12    6    7 1
    13    7    8 1
    14    7   16 1
    15    8    9 2
    16    8   10 1
    17    9   17 1
    18    9   20 1
    19   10   18 1
    20   10   19 1
@<TRIPOS>MOLECULE
ZINC02513206
   23    23     0     0     0
SMALL
USER_CHARGES
1-[4-(trifluoromethyl)phenyl]guanidine
@<TRIPOS>ATOM
      1 C1          1.0238    0.4305    2.6774 C.ar      1 <0>        -0.0344
      2 C2          0.6865   -0.7628    2.0692 C.ar      1 <0>        -0.1144
      3 C3          1.5799   -1.3736    1.1987 C.ar      1 <0>         0.1319
      4 C4          2.8100   -0.7818    0.9428 C.ar      1 <0>        -0.1572
      5 C5          3.1411    0.4114    1.5542 C.ar      1 <0>        -0.0353
      6 C6          2.2494    1.0170    2.4204 C.ar      1 <0>        -0.1678
      7 C7          2.6138    2.3193    3.0855 C.3       1 <0>         0.5064
      8 F1          3.2558    2.0587    4.3008 F         1 <0>        -0.1679
      9 F2          3.4712    3.0449    2.2514 F         1 <0>        -0.1707
     10 F3          1.4528    3.0633    3.3215 F         1 <0>        -0.1697
     11 N1          1.2416   -2.5823    0.5815 N.pl3     1 <0>        -0.6389
     12 C8          1.5975   -2.8094   -0.7287 C.cat     1 <0>         0.7461
     13 N2          2.1773   -1.8051   -1.4676 N.pl3     1 <0>        -0.8047
     14 H1          0.3277    0.9082    3.3508 H         1 <0>         0.1574
     15 H2         -0.2707   -1.2206    2.2705 H         1 <0>         0.1530
     16 H3          3.5071   -1.2544    0.2666 H         1 <0>         0.1484
     17 H4          4.0975    0.8721    1.3555 H         1 <0>         0.1565
     18 H5          0.7563   -3.2607    1.0767 H         1 <0>         0.4457
     19 H6          1.6007   -4.2334   -2.1849 H         1 <0>         0.4572
     20 H7          2.1866   -0.8965   -1.1279 H         1 <0>         0.4424
     21 H8          2.5771   -2.0051   -2.3284 H         1 <0>         0.4407
     22 N3          1.3549   -4.0163   -1.2189 N.pl3     1 <0>        -0.7848
     23 H9          0.9195   -4.7330   -0.6264 H         1 <0>         0.4600
@<TRIPOS>BOND
     1    1    6 ar
     2    1    2 ar
     3    1   14 1
     4    2    3 ar
     5    2   15 1
     6    3    4 ar
     7    3   11 1
     8    4    5 ar
     9    4   16 1
    10    5    6 ar
    11    5   17 1
    12    6    7 1
    13    7    8 1
    14    7    9 1
    15    7   10 1
    16   11   12 1
    17   11   18 1
    18   12   13 1
    19   12   22 2
    20   13   20 1
    21   13   21 1
    22   19   22 1
    23   22   23 1
@<TRIPOS>MOLECULE
ZINC45357357
   54    57     0     0     0
SMALL
USER_CHARGES

@<TRIPOS>ATOM
      1 C1          0.4860    1.4259   -0.2635 C.ar      1 <0>        -0.1013
      2 C2          1.7059    2.0761   -0.2533 C.ar      1 <0>        -0.1143
      3 C3          2.8774    1.3463   -0.1770 C.ar      1 <0>        -0.1022
      4 C4          2.8291   -0.0336   -0.1105 C.ar      1 <0>        -0.1335
      5 C5          1.6092   -0.6837   -0.1198 C.ar      1 <0>        -0.0905
      6 C6          0.4377    0.0460   -0.1975 C.ar      1 <0>        -0.1181
      7 C7          4.1063   -0.8292   -0.0283 C.3       1 <0>         0.1202
      8 H1          4.9375   -0.2196   -0.3826 H         1 <0>         0.0977
      9 C8          4.3582   -1.2408    1.4236 C.3       1 <0>         0.1494
     10 N1          5.6575   -1.9103    1.5230 N.am      1 <0>        -0.7442
     11 C9          6.0930   -2.3627    2.7155 C.2       1 <0>         0.7045
     12 O1          5.4076   -2.2152    3.7089 O.2       1 <0>        -0.5627
     13 N2          7.2884   -2.9785    2.8069 N.am      1 <0>        -0.6853
     14 C10         7.6906   -3.5491    4.0198 C.ar      1 <0>         0.1571
     15 C11         9.0286   -3.5246    4.3904 C.ar      1 <0>        -0.1458
     16 C12         9.4223   -4.0882    5.5883 C.ar      1 <0>        -0.0987
     17 C13         8.4856   -4.6764    6.4182 C.ar      1 <0>        -0.1318
     18 C14         7.1525   -4.7029    6.0518 C.ar      1 <0>        -0.1003
     19 C15         6.7516   -4.1360    4.8579 C.ar      1 <0>        -0.1196
     20 O2          3.9923   -1.9984   -0.8419 O.3       1 <0>        -0.2942
     21 C16         4.2844   -1.8624   -2.1610 C.ar      1 <0>         0.2177
     22 C17         4.5619   -0.6176   -2.6728 C.ar      1 <0>        -0.2226
     23 C18         4.8647   -0.4389   -4.0154 C.ar      1 <0>         0.0055
     24 C19         4.8898   -1.5310   -4.8600 C.ar      1 <0>        -0.1270
     25 C20         4.6145   -2.7870   -4.3635 C.ar      1 <0>        -0.0391
     26 C21         4.3065   -3.0107   -3.0010 C.ar      1 <0>        -0.1608
     27 C22         4.0553   -4.3489   -2.6514 C.2       1 <0>         0.0350
     28 C23         4.1224   -5.3217   -3.5980 C.2       1 <0>        -0.2895
     29 S1          4.5391   -4.4117   -5.0753 S.3       1 <0>         0.1382
     30 C24         3.8984   -6.7671   -3.4443 C.cat     1 <0>         0.6502
     31 N3          4.0102   -7.5759   -4.5005 N.pl3     1 <0>        -0.7615
     32 N4          3.5833   -7.2703   -2.2486 N.pl3     1 <0>        -0.7601
     33 H2         -0.4295    1.9963   -0.3186 H         1 <0>         0.1287
     34 H3          1.7436    3.1542   -0.3053 H         1 <0>         0.1304
     35 H4          3.8305    1.8542   -0.1697 H         1 <0>         0.1265
     36 H5          1.5714   -1.7618   -0.0682 H         1 <0>         0.1238
     37 H6         -0.5154   -0.4620   -0.2052 H         1 <0>         0.1272
     38 H7          4.3567   -0.3544    2.0580 H         1 <0>         0.0998
     39 H8          3.5725   -1.9223    1.7496 H         1 <0>         0.0864
     40 H9          6.2043   -2.0279    0.7305 H         1 <0>         0.3971
     41 H10         7.8699   -3.0263    2.0320 H         1 <0>         0.4056
     42 H11         9.7607   -3.0657    3.7425 H         1 <0>         0.1246
     43 H12        10.4629   -4.0698    5.8770 H         1 <0>         0.1285
     44 H13         8.7960   -5.1165    7.3544 H         1 <0>         0.1258
     45 H14         6.4234   -5.1634    6.7020 H         1 <0>         0.1267
     46 H15         5.7096   -4.1527    4.5745 H         1 <0>         0.1317
     47 H16         4.5435    0.2398   -2.0165 H         1 <0>         0.1481
     48 H17         5.0790    0.5484   -4.3973 H         1 <0>         0.1540
     49 H18         5.1242   -1.4015   -5.9063 H         1 <0>         0.1487
     50 H19         3.8094   -4.6038   -1.6312 H         1 <0>         0.1508
     51 H20         4.2391   -7.2102   -5.3693 H         1 <0>         0.4447
     52 H21         3.5021   -6.6827   -1.4811 H         1 <0>         0.4447
     53 H22         3.4356   -8.2237   -2.1472 H         1 <0>         0.4368
     54 H23         3.8624   -8.5292   -4.3992 H         1 <0>         0.4369
@<TRIPOS>BOND
     1    1    6 ar
     2    1    2 ar
     3    1   33 1
     4    2    3 ar
     5    2   34 1
     6    3    4 ar
     7    3   35 1
     8    4    5 ar
     9    4    7 1
    10    5    6 ar
    11    5   36 1
    12    6   37 1
    13    7    8 1
    14    7    9 1
    15    7   20 1
    16    9   10 1
    17    9   38 1
    18    9   39 1
    19   10   11 am
    20   10   40 1
    21   11   12 2
    22   11   13 am
    23   13   14 1
    24   13   41 1
    25   14   19 ar
    26   14   15 ar
    27   15   16 ar
    28   15   42 1
    29   16   17 ar
    30   16   43 1
    31   17   18 ar
    32   17   44 1
    33   18   19 ar
    34   18   45 1
    35   19   46 1
    36   20   21 1
    37   21   26 ar
    38   21   22 ar
    39   22   23 ar
    40   22   47 1
    41   23   24 ar
    42   23   48 1
    43   24   25 ar
    44   24   49 1
    45   25   29 1
    46   25   26 ar
    47   26   27 1
    48   27   28 2
    49   27   50 1
    50   28   29 1
    51   28   30 1
    52   30   31 2
    53   30   32 1
    54   31   51 1
    55   31   54 1
    56   32   52 1
    57   32   53 1
@<TRIPOS>MOLECULE
ZINC45357359
   54    57     0     0     0
SMALL
USER_CHARGES

@<TRIPOS>ATOM
      1 C1          1.1771    2.4562    0.2318 C.ar      1 <0>        -0.1017
      2 C2          2.5131    2.7287    0.0046 C.ar      1 <0>        -0.1139
      3 C3          3.4191    1.6918   -0.1167 C.ar      1 <0>        -0.1023
      4 C4          2.9892    0.3823   -0.0103 C.ar      1 <0>        -0.1335
      5 C5          1.6533    0.1098    0.2178 C.ar      1 <0>        -0.0916
      6 C6          0.7470    1.1467    0.3377 C.ar      1 <0>        -0.1179
      7 C7          3.9767   -0.7482   -0.1436 C.3       1 <0>         0.1206
      8 H1          4.9726   -0.3939    0.1223 H         1 <0>         0.0981
      9 C8          3.9835   -1.2519   -1.5883 C.3       1 <0>         0.1497
     10 N1          4.9435   -2.3509   -1.7178 N.am      1 <0>        -0.7433
     11 C9          5.1202   -2.9544   -2.9098 C.2       1 <0>         0.7042
     12 O1          4.4827   -2.5868   -3.8778 O.2       1 <0>        -0.5624
     13 N2          6.0034   -3.9655   -3.0290 N.am      1 <0>        -0.6846
     14 C10         6.2755   -4.5121   -4.2882 C.ar      1 <0>         0.1577
     15 C11         6.5660   -5.8644   -4.4117 C.ar      1 <0>        -0.1485
     16 C12         6.8337   -6.4009   -5.6558 C.ar      1 <0>        -0.0996
     17 C13         6.8127   -5.5930   -6.7779 C.ar      1 <0>        -0.1323
     18 C14         6.5243   -4.2459   -6.6582 C.ar      1 <0>        -0.0980
     19 C15         6.2501   -3.7044   -5.4175 C.ar      1 <0>        -0.1195
     20 O2          3.6012   -1.8143    0.7308 O.3       1 <0>        -0.2946
     21 C16         4.0150   -1.7280    2.0212 C.ar      1 <0>         0.2168
     22 C17         4.6604   -0.5953    2.4557 C.ar      1 <0>        -0.2213
     23 C18         5.0980   -0.4703    3.7669 C.ar      1 <0>         0.0055
     24 C19         4.8829   -1.5022    4.6588 C.ar      1 <0>        -0.1267
     25 C20         4.2368   -2.6455    4.2402 C.ar      1 <0>        -0.0394
     26 C21         3.7717   -2.8088    2.9142 C.ar      1 <0>        -0.1606
     27 C22         3.1282   -4.0297    2.6469 C.2       1 <0>         0.0345
     28 C23         2.9860   -4.9524    3.6344 C.2       1 <0>        -0.2893
     29 S1          3.7688   -4.1645    5.0311 S.3       1 <0>         0.1384
     30 C24         2.3512   -6.2773    3.5664 C.cat     1 <0>         0.6502
     31 N3          2.3062   -7.0524    4.6524 N.pl3     1 <0>        -0.7614
     32 N4          1.8201   -6.7049    2.4186 N.pl3     1 <0>        -0.7602
     33 H2          0.4700    3.2665    0.3310 H         1 <0>         0.1286
     34 H3          2.8490    3.7518   -0.0785 H         1 <0>         0.1305
     35 H4          4.4628    1.9047   -0.2949 H         1 <0>         0.1270
     36 H5          1.3173   -0.9133    0.3005 H         1 <0>         0.1234
     37 H6         -0.2967    0.9338    0.5155 H         1 <0>         0.1269
     38 H7          2.9876   -1.6062   -1.8542 H         1 <0>         0.0860
     39 H8          4.2699   -0.4387   -2.2552 H         1 <0>         0.0996
     40 H9          5.4520   -2.6442   -0.9456 H         1 <0>         0.3973
     41 H10         6.4503   -4.3143   -2.2419 H         1 <0>         0.4051
     42 H11         6.5829   -6.4959   -3.5357 H         1 <0>         0.1220
     43 H12         7.0600   -7.4525   -5.7525 H         1 <0>         0.1274
     44 H13         7.0224   -6.0149   -7.7497 H         1 <0>         0.1259
     45 H14         6.5091   -3.6174   -7.5364 H         1 <0>         0.1278
     46 H15         6.0202   -2.6532   -5.3253 H         1 <0>         0.1347
     47 H16         4.8311    0.2148    1.7621 H         1 <0>         0.1484
     48 H17         5.6039    0.4284    4.0875 H         1 <0>         0.1540
     49 H18         5.2202   -1.4140    5.6809 H         1 <0>         0.1487
     50 H19         2.7468   -4.2341    1.6574 H         1 <0>         0.1507
     51 H20         2.6921   -6.7417    5.4863 H         1 <0>         0.4447
     52 H21         1.8529   -6.1417    1.6295 H         1 <0>         0.4447
     53 H22         1.4014   -7.5787    2.3738 H         1 <0>         0.4368
     54 H23         1.8875   -7.9262    4.6076 H         1 <0>         0.4369
@<TRIPOS>BOND
     1    1    6 ar
     2    1    2 ar
     3    1   33 1
     4    2    3 ar
     5    2   34 1
     6    3    4 ar
     7    3   35 1
     8    4    5 ar
     9    4    7 1
    10    5    6 ar
    11    5   36 1
    12    6   37 1
    13    7    8 1
    14    7    9 1
    15    7   20 1
    16    9   10 1
    17    9   38 1
    18    9   39 1
    19   10   11 am
    20   10   40 1
    21   11   12 2
    22   11   13 am
    23   13   14 1
    24   13   41 1
    25   14   19 ar
    26   14   15 ar
    27   15   16 ar
    28   15   42 1
    29   16   17 ar
    30   16   43 1
    31   17   18 ar
    32   17   44 1
    33   18   19 ar
    34   18   45 1
    35   19   46 1
    36   20   21 1
    37   21   26 ar
    38   21   22 ar
    39   22   23 ar
    40   22   47 1
    41   23   24 ar
    42   23   48 1
    43   24   25 ar
    44   24   49 1
    45   25   29 1
    46   25   26 ar
    47   26   27 1
    48   27   28 2
    49   27   50 1
    50   28   29 1
    51   28   30 1
    52   30   31 2
    53   30   32 1
    54   31   51 1
    55   31   54 1
    56   32   52 1
    57   32   53 1
@<TRIPOS>MOLECULE
ZINC00017086
   21    22     0     0     0
SMALL
USER_CHARGES
4-iodobenzothiophene-2-carboxamidine
@<TRIPOS>ATOM
      1 C1          5.2890    1.3390   -0.0415 C.ar      1 <0>        -0.0388
      2 C2          4.0232    1.8905   -0.0262 C.ar      1 <0>        -0.0714
      3 C3          2.9217    1.0626   -0.0198 C.ar      1 <0>        -0.0734
      4 C4          3.0380   -0.3474   -0.0285 C.ar      1 <0>        -0.1039
      5 C5          1.8194   -1.0525   -0.0207 C.2       1 <0>        -0.0047
      6 C6          0.6438   -0.3743   -0.0060 C.2       1 <0>        -0.2607
      7 S1          1.1672    1.3317   -0.0019 S.3       1 <0>         0.1583
      8 C7         -0.7276   -0.9140    0.0045 C.cat     1 <0>         0.6483
      9 N1         -1.8070   -0.0548    0.0192 N.pl3     1 <0>        -0.7744
     10 C8          4.3560   -0.8711   -0.0442 C.ar      1 <0>        -0.0404
     11 C9          5.4332   -0.0423   -0.0503 C.ar      1 <0>        -0.0835
     12 I1          4.6457   -2.9459   -0.0573 I         1 <0>        -0.0086
     13 H1          6.1604    1.9770   -0.0470 H         1 <0>         0.1608
     14 H2          3.8974    2.9631   -0.0189 H         1 <0>         0.1542
     15 H3          1.8201   -2.1325   -0.0261 H         1 <0>         0.1481
     16 H4         -1.7856   -2.6562    0.0059 H         1 <0>         0.4503
     17 H5         -1.6634    0.9045    0.0227 H         1 <0>         0.4444
     18 H6         -2.7097   -0.4101    0.0261 H         1 <0>         0.4365
     19 H7          6.4255   -0.4683   -0.0622 H         1 <0>         0.1496
     20 N2         -0.8568   -2.2346   -0.0009 N.pl3     1 <0>        -0.7529
     21 H8         -0.0218   -2.8320   -0.0119 H         1 <0>         0.4619
@<TRIPOS>BOND
     1    1   11 ar
     2    1    2 ar
     3    1   13 1
     4    2    3 ar
     5    2   14 1
     6    3    7 1
     7    3    4 ar
     8    4    5 1
     9    4   10 ar
    10    5    6 2
    11    5   15 1
    12    6    7 1
    13    6    8 1
    14    8    9 1
    15    8   20 2
    16    9   17 1
    17    9   18 1
    18   10   11 ar
    19   10   12 1
    20   11   19 1
    21   16   20 1
    22   20   21 1
@<TRIPOS>MOLECULE
ZINC04340269
   23    23     0     0     0
SMALL
USER_CHARGES

@<TRIPOS>ATOM
      1 C1          0.0541    1.3093    0.0511 C.ar      1 <0>        -0.0998
      2 C2          1.2379    2.0581   -0.0359 C.ar      1 <0>         0.4638
      3 N1          2.4129    1.4496    0.0702 N.ar      1 <0>        -0.5674
      4 C3          2.4640    0.1373    0.2579 C.ar      1 <0>         0.4601
      5 C4          1.2815   -0.6064    0.3442 C.ar      1 <0>        -0.0071
      6 N2          0.1144   -0.0080    0.2397 N.ar      1 <0>        -0.2998
      7 Cl1         1.3549   -2.3233    0.5899 Cl        1 <0>        -0.0262
      8 N3          3.6896   -0.4980    0.3683 N.pl3     1 <0>        -0.8179
      9 N4          1.1804    3.4267   -0.2323 N.pl3     1 <0>        -0.8085
     10 C5         -1.2563    1.9814   -0.0602 C.2       1 <0>         0.5976
     11 O1         -1.3142    3.1971   -0.1232 O.2       1 <0>        -0.5581
     12 N5         -2.3824    1.2540   -0.0918 N.2       1 <0>        -0.6703
     13 C6         -3.3650    1.5181    0.7551 C.2       1 <0>         0.7012
     14 N6         -3.1890    2.4512    1.7344 N.pl3     1 <0>        -0.8655
     15 N7         -4.5534    0.8571    0.6484 N.pl3     1 <0>        -0.8245
     16 H1          4.5097    0.0166    0.3083 H         1 <0>         0.4132
     17 H2          3.7280   -1.4575    0.5055 H         1 <0>         0.4179
     18 H3          0.3235    3.8812   -0.2317 H         1 <0>         0.4284
     19 H4          1.9971    3.9316   -0.3704 H         1 <0>         0.4028
     20 H5         -5.2734    1.0506    1.2690 H         1 <0>         0.4111
     21 H6         -2.3709    2.9712    1.7674 H         1 <0>         0.4205
     22 H7         -4.6786    0.1935   -0.0480 H         1 <0>         0.4267
     23 H8         -3.8820    2.5947    2.3977 H         1 <0>         0.4016
@<TRIPOS>BOND
     1    1    6 ar
     2    1    2 ar
     3    1   10 1
     4    2    3 ar
     5    2    9 1
     6    3    4 ar
     7    4    5 ar
     8    4    8 1
     9    5    6 ar
    10    5    7 1
    11    8   16 1
    12    8   17 1
    13    9   18 1
    14    9   19 1
    15   10   12 1
    16   10   11 2
    17   12   13 2
    18   13   14 1
    19   13   15 1
    20   14   21 1
    21   14   23 1
    22   15   22 1
    23   15   20 1
