@<TRIPOS>MOLECULE
ZINC03923061
   80    83     0     0     0
SMALL
USER_CHARGES
2-amino-N-[7,7-dimethyl-1-[[4-(o-tolyl)piperazin-1-yl]sulfonylmethyl]norbornan-2-yl]-4-methylsulfonyl-butanamide
@<TRIPOS>ATOM
      1 C1          2.0446   -0.7328   -9.4461 C.3       1 <0>        -0.1083
      2 C2          3.3521   -0.1264   -9.0058 C.ar      1 <0>        -0.0556
      3 C3          4.3297    0.1609   -9.9382 C.ar      1 <0>        -0.1153
      4 C4          5.5292    0.7182   -9.5353 C.ar      1 <0>        -0.1120
      5 C5          5.7547    0.9894   -8.1979 C.ar      1 <0>        -0.1172
      6 C6          4.7797    0.7091   -7.2611 C.ar      1 <0>        -0.1448
      7 C7          3.5752    0.1447   -7.6620 C.ar      1 <0>         0.0755
      8 N1          2.5885   -0.1441   -6.7165 N.pl3     1 <0>        -0.4920
      9 C8          3.0803   -1.1034   -5.7186 C.3       1 <0>         0.0429
     10 C9          1.9216   -1.5311   -4.8116 C.3       1 <0>         0.1235
     11 N2          1.2928   -0.3232   -4.2560 N.pl3     1 <0>        -0.9966
     12 C10         0.8913    0.7430   -5.1861 C.3       1 <0>         0.1245
     13 C11         2.0959    1.0837   -6.0778 C.3       1 <0>         0.0442
     14 S1          1.0375   -0.1706   -2.6269 S.o2      1 <0>         2.5985
     15 O1          0.9397   -1.5051   -2.1486 O.2       1 <0>        -0.9478
     16 O2         -0.0626    0.7218   -2.5143 O.2       1 <0>        -0.9576
     17 C12         2.5449    0.6125   -1.9902 C.3       1 <0>        -0.6068
     18 C13         2.4198    0.8046   -0.4774 C.3       1 <0>        -0.0661
     19 C14         2.2685   -0.4981    0.3703 C.3       1 <0>        -0.1327
     20 C15         2.6552   -0.0789    1.8071 C.3       1 <0>        -0.1190
     21 C16         3.0043    1.4366    1.6951 C.3       1 <0>        -0.0930
     22 H1          3.6031    1.8489    2.5072 H         1 <0>         0.1129
     23 C17         3.6307    1.4846    0.2569 C.3       1 <0>        -0.0416
     24 C18         3.8574    2.9196   -0.2228 C.3       1 <0>        -0.1480
     25 C19         4.9063    0.6454    0.1583 C.3       1 <0>        -0.1450
     26 C20         1.6342    2.1347    1.4361 C.3       1 <0>        -0.1219
     27 C21         1.2475    1.7155   -0.0006 C.3       1 <0>         0.1366
     28 H2          1.1625    2.5925   -0.6424 H         1 <0>         0.1093
     29 N3         -0.0111    0.9658    0.0074 N.am      1 <0>        -0.6989
     30 C22        -1.1793    1.6122    0.1915 C.2       1 <0>         0.5172
     31 O3         -1.1882    2.8138    0.3555 O.2       1 <0>        -0.5135
     32 C23        -2.4745    0.8419    0.1935 C.3       1 <0>         0.0184
     33 H3         -2.3358   -0.1008    0.7228 H         1 <0>         0.1665
     34 C24        -2.9021    0.5592   -1.2481 C.3       1 <0>        -0.1321
     35 C25        -4.1483   -0.3283   -1.2457 C.3       1 <0>        -0.6563
     36 S2         -4.6552   -0.6634   -2.9549 S.o2      1 <0>         2.4221
     37 O4         -5.0608    0.5608   -3.5517 O.2       1 <0>        -0.9225
     38 O5         -3.6398   -1.4348   -3.5819 O.2       1 <0>        -0.9160
     39 C26        -6.1209   -1.7104   -2.7403 C.3       1 <0>        -0.6529
     40 H4          1.3349    0.0618   -9.6765 H         1 <0>         0.0685
     41 H5          2.2080   -1.3429  -10.3344 H         1 <0>         0.0617
     42 H6          1.6453   -1.3558   -8.6458 H         1 <0>         0.0779
     43 H7          4.1569   -0.0496  -10.9833 H         1 <0>         0.1274
     44 H8          6.2917    0.9425  -10.2665 H         1 <0>         0.1251
     45 H9          6.6926    1.4250   -7.8865 H         1 <0>         0.1219
     46 H10         4.9547    0.9252   -6.2175 H         1 <0>         0.1147
     47 H11         3.8594   -0.6353   -5.1171 H         1 <0>         0.0423
     48 H12         3.4881   -1.9784   -6.2248 H         1 <0>         0.0950
     49 H13         2.3015   -2.1523   -4.0005 H         1 <0>         0.0952
     50 H14         1.1880   -2.0927   -5.3901 H         1 <0>         0.0910
     51 H15         0.0615    0.3976   -5.8028 H         1 <0>         0.0904
     52 H16         0.5897    1.6260   -4.6228 H         1 <0>         0.0950
     53 H17         2.8887    1.5214   -5.4712 H         1 <0>         0.0422
     54 H18         1.7899    1.7951   -6.8448 H         1 <0>         0.0934
     55 H19         2.6810    1.5819   -2.4695 H         1 <0>         0.1398
     56 H20         3.4035   -0.0233   -2.2059 H         1 <0>         0.1424
     57 H21         2.9458   -1.2697    0.0043 H         1 <0>         0.0895
     58 H22         1.2384   -0.8533    0.3424 H         1 <0>         0.0637
     59 H23         3.5226   -0.6445    2.1474 H         1 <0>         0.0786
     60 H24         1.8159   -0.2263    2.4867 H         1 <0>         0.0692
     61 H25         4.5569    3.4203    0.4467 H         1 <0>         0.0682
     62 H26         4.2681    2.9047   -1.2323 H         1 <0>         0.0604
     63 H27         2.9086    3.4563   -0.2244 H         1 <0>         0.0612
     64 H28         4.6820   -0.3887    0.4200 H         1 <0>         0.0657
     65 H29         5.2909    0.6872   -0.8607 H         1 <0>         0.0592
     66 H30         5.6547    1.0400    0.8456 H         1 <0>         0.0671
     67 H31         1.7414    3.2175    1.5002 H         1 <0>         0.0843
     68 H32         0.8879    1.7829    2.1484 H         1 <0>         0.0731
     69 H33        -0.0040    0.0048   -0.1239 H         1 <0>         0.3999
     70 H34        -3.1266    1.4996   -1.7515 H         1 <0>         0.1201
     71 H35        -2.0942    0.0498   -1.7734 H         1 <0>         0.1423
     72 H36        -3.9238   -1.2687   -0.7424 H         1 <0>         0.1530
     73 H37        -4.9562    0.1811   -0.7204 H         1 <0>         0.1317
     74 H38        -6.8775   -1.1651   -2.1761 H         1 <0>         0.1311
     75 H39        -6.5209   -1.9804   -3.7177 H         1 <0>         0.1412
     76 H40        -5.8451   -2.6149   -2.1981 H         1 <0>         0.1335
     77 H41        -3.6610    2.5123    0.3942 H         1 <0>         0.4473
     78 H42        -4.3749    1.1120    0.9379 H         1 <0>         0.4413
     79 N4         -3.5027    1.6360    0.8889 N.4       1 <0>        -0.6310
     80 H43        -3.1820    1.8427    1.8422 H         1 <0>         0.4468
@<TRIPOS>BOND
     1    1    2 1
     2    1   40 1
     3    1   41 1
     4    1   42 1
     5    2    7 ar
     6    2    3 ar
     7    3    4 ar
     8    3   43 1
     9    4    5 ar
    10    4   44 1
    11    5    6 ar
    12    5   45 1
    13    6    7 ar
    14    6   46 1
    15    7    8 1
    16    8   13 1
    17    8    9 1
    18    9   10 1
    19    9   47 1
    20    9   48 1
    21   10   11 1
    22   10   49 1
    23   10   50 1
    24   11   12 1
    25   11   14 1
    26   12   13 1
    27   12   51 1
    28   12   52 1
    29   13   53 1
    30   13   54 1
    31   14   15 2
    32   14   16 2
    33   14   17 1
    34   17   18 1
    35   17   55 1
    36   17   56 1
    37   18   23 1
    38   18   27 1
    39   18   19 1
    40   19   20 1
    41   19   57 1
    42   19   58 1
    43   20   21 1
    44   20   59 1
    45   20   60 1
    46   21   22 1
    47   21   23 1
    48   21   26 1
    49   23   24 1
    50   23   25 1
    51   24   61 1
    52   24   62 1
    53   24   63 1
    54   25   64 1
    55   25   65 1
    56   25   66 1
    57   26   27 1
    58   26   67 1
    59   26   68 1
    60   27   28 1
    61   27   29 1
    62   29   30 am
    63   29   69 1
    64   30   31 2
    65   30   32 1
    66   32   33 1
    67   32   34 1
    68   32   79 1
    69   34   35 1
    70   34   70 1
    71   34   71 1
    72   35   36 1
    73   35   72 1
    74   35   73 1
    75   36   37 2
    76   36   38 2
    77   36   39 1
    78   39   74 1
    79   39   75 1
    80   39   76 1
    81   77   79 1
    82   78   79 1
    83   79   80 1
@<TRIPOS>MOLECULE
ZINC04847333
   64    67     0     0     0
SMALL
USER_CHARGES

@<TRIPOS>ATOM
      1 C1          1.2182    1.2578    0.1545 C.3       1 <0>        -0.1217
      2 C2          0.5802   -0.1043    0.0616 C.ar      1 <0>        -0.0675
      3 C3          0.5745   -0.7847   -1.1393 C.ar      1 <0>        -0.1203
      4 C4         -0.0112   -2.0347   -1.2262 C.ar      1 <0>        -0.1105
      5 C5         -0.5938   -2.6106   -0.1113 C.ar      1 <0>        -0.1251
      6 C6         -0.5940   -1.9399    1.0945 C.ar      1 <0>        -0.0993
      7 C7         -0.0001   -0.6820    1.1895 C.ar      1 <0>        -0.0594
      8 C8          0.0083    0.0412    2.4839 C.ar      1 <0>        -0.0158
      9 C9          1.1973    0.5843    2.9712 C.ar      1 <0>        -0.1122
     10 C10         1.2062    1.2559    4.1728 C.ar      1 <0>        -0.0556
     11 C11         0.0240    1.3936    4.9043 C.ar      1 <0>        -0.1285
     12 C12        -1.1662    0.8494    4.4154 C.ar      1 <0>        -0.0975
     13 C13        -1.1740    0.1831    3.2107 C.ar      1 <0>        -0.1134
     14 C14         0.0325    2.1137    6.1941 C.2       1 <0>         0.5881
     15 O1          0.8878    2.9478    6.4190 O.2       1 <0>        -0.5067
     16 N1         -0.9081    1.8461    7.1215 N.am      1 <0>        -0.5976
     17 C15        -1.9217    0.7871    7.0324 C.3       1 <0>         0.1040
     18 C16        -2.4350    0.5537    8.4405 C.2       1 <0>         0.1226
     19 N2         -2.9037   -0.5282    8.9375 N.2       1 <0>        -0.3021
     20 O2         -2.9876   -1.6954    8.1402 O.3       1 <0>        -0.2358
     21 C17        -3.5296   -2.8278    8.8228 C.3       1 <0>         0.0421
     22 C18        -2.2649    1.8993    9.1257 C.3       1 <0>        -0.0704
     23 C19        -1.0859    2.5609    8.3923 C.3       1 <0>         0.1246
     24 H1         -1.3129    3.6094    8.1993 H         1 <0>         0.1193
     25 C20         0.1663    2.4487    9.2232 C.2       1 <0>         0.5053
     26 O3          1.1211    1.8316    8.8008 O.2       1 <0>        -0.5066
     27 N3          0.2251    3.0341   10.4358 N.am      1 <0>        -0.7262
     28 C21         1.4424    2.9250   11.2436 C.3       1 <0>         0.0955
     29 C22         1.2468    3.6725   12.5642 C.3       1 <0>         0.1403
     30 H2          0.9522    4.7017   12.3589 H         1 <0>         0.1161
     31 C23         2.5378    3.6651   13.3415 C.ar      1 <0>        -0.1202
     32 C24         2.9034    2.5445   14.0637 C.ar      1 <0>        -0.1092
     33 C25         4.0876    2.5377   14.7768 C.ar      1 <0>        -0.1161
     34 C26         4.9065    3.6513   14.7673 C.ar      1 <0>        -0.1148
     35 C27         4.5414    4.7716   14.0444 C.ar      1 <0>        -0.1167
     36 C28         3.3593    4.7768   13.3279 C.ar      1 <0>        -0.1055
     37 O4          0.2263    3.0285   13.3295 O.3       1 <0>        -0.5502
     38 H3          2.2709    1.1489    0.4155 H         1 <0>         0.0736
     39 H4          1.1327    1.7654   -0.8063 H         1 <0>         0.0680
     40 H5          0.7125    1.8443    0.9216 H         1 <0>         0.0714
     41 H6          1.0278   -0.3400   -2.0129 H         1 <0>         0.1250
     42 H7         -0.0140   -2.5631   -2.1681 H         1 <0>         0.1238
     43 H8         -1.0496   -3.5869   -0.1850 H         1 <0>         0.1247
     44 H9         -1.0494   -2.3902    1.9641 H         1 <0>         0.1246
     45 H10         2.1112    0.4774    2.4057 H         1 <0>         0.1330
     46 H11         2.1269    1.6759    4.5501 H         1 <0>         0.1369
     47 H12        -2.0807    0.9553    4.9801 H         1 <0>         0.1378
     48 H13        -2.0949   -0.2336    2.8303 H         1 <0>         0.1310
     49 H14        -2.7389    1.1066    6.3858 H         1 <0>         0.1020
     50 H15        -1.4729   -0.1267    6.6429 H         1 <0>         0.0991
     51 H16        -2.9026   -3.0690    9.6812 H         1 <0>         0.0522
     52 H17        -4.5391   -2.5978    9.1634 H         1 <0>         0.0536
     53 H18        -3.5604   -3.6805    8.1445 H         1 <0>         0.1009
     54 H19        -3.1691    2.4982    9.0168 H         1 <0>         0.1243
     55 H20        -2.0241    1.7613   10.1798 H         1 <0>         0.1095
     56 H21        -0.5385    3.5277   10.7736 H         1 <0>         0.4045
     57 H22         1.6499    1.8746   11.4479 H         1 <0>         0.0723
     58 H23         2.2799    3.3617   10.6995 H         1 <0>         0.0806
     59 H24         2.2636    1.6744   14.0711 H         1 <0>         0.1202
     60 H25         4.3728    1.6624   15.3416 H         1 <0>         0.1250
     61 H26         5.8313    3.6462   15.3250 H         1 <0>         0.1244
     62 H27         5.1810    5.6418   14.0373 H         1 <0>         0.1257
     63 H28         3.0758    5.6507   12.7601 H         1 <0>         0.1251
     64 H29         0.4217    2.1073   13.5493 H         1 <0>         0.3774
@<TRIPOS>BOND
     1    1    2 1
     2    1   38 1
     3    1   39 1
     4    1   40 1
     5    2    7 ar
     6    2    3 ar
     7    3    4 ar
     8    3   41 1
     9    4    5 ar
    10    4   42 1
    11    5    6 ar
    12    5   43 1
    13    6    7 ar
    14    6   44 1
    15    7    8 1
    16    8   13 ar
    17    8    9 ar
    18    9   10 ar
    19    9   45 1
    20   10   11 ar
    21   10   46 1
    22   11   12 ar
    23   11   14 1
    24   12   13 ar
    25   12   47 1
    26   13   48 1
    27   14   15 2
    28   14   16 am
    29   16   23 1
    30   16   17 1
    31   17   18 1
    32   17   49 1
    33   17   50 1
    34   18   19 2
    35   18   22 1
    36   19   20 1
    37   20   21 1
    38   21   51 1
    39   21   52 1
    40   21   53 1
    41   22   23 1
    42   22   54 1
    43   22   55 1
    44   23   24 1
    45   23   25 1
    46   25   26 2
    47   25   27 am
    48   27   28 1
    49   27   56 1
    50   28   29 1
    51   28   57 1
    52   28   58 1
    53   29   30 1
    54   29   31 1
    55   29   37 1
    56   31   36 ar
    57   31   32 ar
    58   32   33 ar
    59   32   59 1
    60   33   34 ar
    61   33   60 1
    62   34   35 ar
    63   34   61 1
    64   35   36 ar
    65   35   62 1
    66   36   63 1
    67   37   64 1
@<TRIPOS>MOLECULE
ZINC64491763
   47    49     0     0     0
SMALL
USER_CHARGES

@<TRIPOS>ATOM
      1 C1          0.3126    1.5783    0.0094 C.3       1 <0>        -0.1212
      2 C2          0.1545    0.0800   -0.0250 C.ar      1 <0>        -0.0678
      3 C3          0.1550   -0.5878   -1.2329 C.ar      1 <0>        -0.1203
      4 C4          0.0095   -1.9629   -1.2660 C.ar      1 <0>        -0.1102
      5 C5         -0.1368   -2.6769   -0.0900 C.ar      1 <0>        -0.1248
      6 C6         -0.1387   -2.0201    1.1234 C.ar      1 <0>        -0.0992
      7 C7          0.0133   -0.6347    1.1633 C.ar      1 <0>        -0.0598
      8 C8          0.0182    0.0762    2.4645 C.ar      1 <0>        -0.0152
      9 C9          1.0289    0.9932    2.7539 C.ar      1 <0>        -0.1118
     10 C10         1.0344    1.6539    3.9617 C.ar      1 <0>        -0.0984
     11 C11         0.0273    1.4058    4.8976 C.ar      1 <0>        -0.1325
     12 C12        -0.9844    0.4873    4.6067 C.ar      1 <0>        -0.0571
     13 C13        -0.9911   -0.1680    3.3960 C.ar      1 <0>        -0.1139
     14 C14         0.0325    2.1137    6.1941 C.2       1 <0>         0.5837
     15 O1         -1.0111    2.2990    6.7896 O.2       1 <0>        -0.5287
     16 N1          1.1940    2.5542    6.7168 N.am      1 <0>        -0.5999
     17 C15         2.5088    2.4787    6.0668 C.3       1 <0>         0.1043
     18 C16         3.5470    2.6483    7.1595 C.2       1 <0>         0.1278
     19 N2          4.7363    2.1776    7.1943 N.2       1 <0>        -0.3103
     20 O2          5.2182    1.3912    6.1198 O.3       1 <0>        -0.2403
     21 C17         6.5606    0.9324    6.2917 C.3       1 <0>         0.0430
     22 C18         2.8509    3.5056    8.2034 C.3       1 <0>        -0.0718
     23 C19         1.3544    3.1954    8.0285 C.3       1 <0>         0.1438
     24 H1          1.0235    2.5178    8.8155 H         1 <0>         0.1006
     25 C20         0.5423    4.4911    8.0773 C.3       1 <0>         0.0600
     26 O3          1.0779    5.4248    7.1374 O.3       1 <0>        -0.5698
     27 H2          1.3711    1.8306    0.0735 H         1 <0>         0.0730
     28 H3         -0.1093    2.0091   -0.8986 H         1 <0>         0.0681
     29 H4         -0.2096    1.9788    0.8783 H         1 <0>         0.0711
     30 H5          0.2688   -0.0355   -2.1540 H         1 <0>         0.1250
     31 H6          0.0097   -2.4811   -2.2135 H         1 <0>         0.1240
     32 H7         -0.2500   -3.7505   -0.1219 H         1 <0>         0.1250
     33 H8         -0.2533   -2.5785    2.0407 H         1 <0>         0.1248
     34 H9          1.8076    1.1846    2.0304 H         1 <0>         0.1319
     35 H10         1.8172    2.3634    4.1857 H         1 <0>         0.1399
     36 H11        -1.7634    0.2948    5.3295 H         1 <0>         0.1366
     37 H12        -1.7757   -0.8746    3.1690 H         1 <0>         0.1324
     38 H13         2.6308    1.5092    5.5838 H         1 <0>         0.0979
     39 H14         2.6076    3.2771    5.3314 H         1 <0>         0.0990
     40 H15         6.8549    0.3380    5.4268 H         1 <0>         0.0995
     41 H16         7.2278    1.7890    6.3879 H         1 <0>         0.0524
     42 H17         6.6230    0.3204    7.1915 H         1 <0>         0.0516
     43 H18         3.1840    3.2309    9.2042 H         1 <0>         0.1032
     44 H19         3.0408    4.5623    8.0154 H         1 <0>         0.1204
     45 H20        -0.4969    4.2783    7.8262 H         1 <0>         0.0703
     46 H21         0.5942    4.9149    9.0802 H         1 <0>         0.0606
     47 H22         0.6108    6.2712    7.1141 H         1 <0>         0.3832
@<TRIPOS>BOND
     1    1    2 1
     2    1   27 1
     3    1   28 1
     4    1   29 1
     5    2    7 ar
     6    2    3 ar
     7    3    4 ar
     8    3   30 1
     9    4    5 ar
    10    4   31 1
    11    5    6 ar
    12    5   32 1
    13    6    7 ar
    14    6   33 1
    15    7    8 1
    16    8   13 ar
    17    8    9 ar
    18    9   10 ar
    19    9   34 1
    20   10   11 ar
    21   10   35 1
    22   11   12 ar
    23   11   14 1
    24   12   13 ar
    25   12   36 1
    26   13   37 1
    27   14   15 2
    28   14   16 am
    29   16   23 1
    30   16   17 1
    31   17   18 1
    32   17   38 1
    33   17   39 1
    34   18   19 2
    35   18   22 1
    36   19   20 1
    37   20   21 1
    38   21   40 1
    39   21   41 1
    40   21   42 1
    41   22   23 1
    42   22   43 1
    43   22   44 1
    44   23   24 1
    45   23   25 1
    46   25   26 1
    47   25   45 1
    48   25   46 1
    49   26   47 1
@<TRIPOS>MOLECULE
ZINC00829773
   59    62     0     0     0
SMALL
USER_CHARGES

@<TRIPOS>ATOM
      1 C1          1.4535    1.8396   -0.0587 C.3       1 <0>        -0.1538
      2 C2          1.2218    0.3274   -0.0807 C.3       1 <0>         0.0491
      3 O1          1.7553   -0.2537    1.1108 O.3       1 <0>        -0.3084
      4 C3          1.6314   -1.5999    1.2498 C.ar      1 <0>         0.1903
      5 C4          1.0140   -2.3469    0.2571 C.ar      1 <0>        -0.2289
      6 C5          0.8897   -3.7153    0.4005 C.ar      1 <0>         0.0287
      7 C6          1.3794   -4.3403    1.5325 C.ar      1 <0>        -0.7180
      8 C7          1.9946   -3.5979    2.5235 C.ar      1 <0>         0.0156
      9 C8          2.1270   -2.2301    2.3819 C.ar      1 <0>        -0.1707
     10 S1          1.2187   -6.0856    1.7126 S.o2      1 <0>         2.6869
     11 O2          1.2700   -6.3564    3.1066 O.2       1 <0>        -0.9431
     12 O3          0.1210   -6.4784    0.9002 O.2       1 <0>        -0.9358
     13 N1          2.5701   -6.7731    1.0469 N.pl3     1 <0>        -0.9274
     14 C9          3.7932   -6.9039    1.8427 C.3       1 <0>         0.1110
     15 C10         3.8423   -8.2748    2.4666 C.2       1 <0>         0.5146
     16 O4          2.9444   -9.0646    2.2663 O.2       1 <0>        -0.4706
     17 N2          4.8844   -8.6229    3.2472 N.am      1 <0>        -0.5711
     18 N3          4.9301   -9.8974    3.8272 N.2       1 <0>        -0.1111
     19 C11         5.9435  -10.2360    4.5864 C.2       1 <0>         0.0632
     20 C12         6.1638  -11.5302    5.2730 C.ar      1 <0>        -0.0968
     21 C13         5.4333  -12.7116    5.3349 C.ar      1 <0>        -0.0350
     22 C14         5.9099  -13.7733    6.0776 C.ar      1 <0>        -0.1387
     23 C15         7.1108  -13.6607    6.7577 C.ar      1 <0>        -0.0668
     24 C16         7.8431  -12.4921    6.7023 C.ar      1 <0>        -0.1350
     25 C17         7.3791  -11.4119    5.9594 C.ar      1 <0>         0.1562
     26 N4          7.9100  -10.1455    5.7401 N.am      1 <0>        -0.6438
     27 C18         7.1182   -9.4127    4.9388 C.2       1 <0>         0.5462
     28 O5          7.3297   -8.2721    4.5716 O.2       1 <0>        -0.5017
     29 C19         2.5439   -7.2283   -0.2734 C.ar      1 <0>         0.1196
     30 C20         3.4244   -6.7005   -1.2092 C.ar      1 <0>        -0.1132
     31 C21         3.3962   -7.1531   -2.5137 C.ar      1 <0>        -0.1157
     32 C22         2.4924   -8.1303   -2.8887 C.ar      1 <0>        -0.0779
     33 C23         1.6145   -8.6579   -1.9596 C.ar      1 <0>        -0.1096
     34 C24         1.6413   -8.2138   -0.6522 C.ar      1 <0>        -0.0805
     35 C25         2.4639   -8.6211   -4.3133 C.3       1 <0>        -0.1175
     36 H1          2.5230    2.0425   -0.0029 H         1 <0>         0.0683
     37 H2          1.0465    2.2828   -0.9676 H         1 <0>         0.0825
     38 H3          0.9561    2.2707    0.8101 H         1 <0>         0.0685
     39 H4          0.1523    0.1245   -0.1365 H         1 <0>         0.0680
     40 H5          1.7192   -0.1038   -0.9495 H         1 <0>         0.0677
     41 H6          0.6307   -1.8591   -0.6270 H         1 <0>         0.1399
     42 H7          0.4092   -4.2973   -0.3720 H         1 <0>         0.1440
     43 H8          2.3761   -4.0883    3.4068 H         1 <0>         0.1467
     44 H9          2.6116   -1.6512    3.1543 H         1 <0>         0.1437
     45 H10         4.6619   -6.7663    1.1989 H         1 <0>         0.1268
     46 H11         3.7988   -6.1472    2.6272 H         1 <0>         0.1237
     47 H12         5.6027   -7.9911    3.4074 H         1 <0>         0.4093
     48 H13         4.4966  -12.7982    4.8043 H         1 <0>         0.1390
     49 H14         5.3453  -14.6925    6.1285 H         1 <0>         0.1371
     50 H15         7.4778  -14.4949    7.3371 H         1 <0>         0.1376
     51 H16         8.7782  -12.4162    7.2374 H         1 <0>         0.1347
     52 H17         8.7482   -9.8322    6.1145 H         1 <0>         0.4246
     53 H18         4.1300   -5.9368   -0.9172 H         1 <0>         0.1278
     54 H19         4.0805   -6.7432   -3.2418 H         1 <0>         0.1275
     55 H20         0.9100   -9.4209   -2.2558 H         1 <0>         0.1298
     56 H21         0.9584   -8.6295    0.0740 H         1 <0>         0.1332
     57 H22         3.1443   -9.4658   -4.4203 H         1 <0>         0.0725
     58 H23         1.4519   -8.9350   -4.5692 H         1 <0>         0.0689
     59 H24         2.7747   -7.8173   -4.9807 H         1 <0>         0.0676
@<TRIPOS>BOND
     1    1    2 1
     2    1   36 1
     3    1   37 1
     4    1   38 1
     5    2    3 1
     6    2   39 1
     7    2   40 1
     8    3    4 1
     9    4    9 ar
    10    4    5 ar
    11    5    6 ar
    12    5   41 1
    13    6    7 ar
    14    6   42 1
    15    7    8 ar
    16    7   10 1
    17    8    9 ar
    18    8   43 1
    19    9   44 1
    20   10   11 2
    21   10   12 2
    22   10   13 1
    23   13   14 1
    24   13   29 1
    25   14   15 1
    26   14   45 1
    27   14   46 1
    28   15   16 2
    29   15   17 am
    30   17   18 1
    31   17   47 1
    32   18   19 2
    33   19   27 1
    34   19   20 1
    35   20   25 ar
    36   20   21 ar
    37   21   22 ar
    38   21   48 1
    39   22   23 ar
    40   22   49 1
    41   23   24 ar
    42   23   50 1
    43   24   25 ar
    44   24   51 1
    45   25   26 1
    46   26   27 am
    47   26   52 1
    48   27   28 2
    49   29   34 ar
    50   29   30 ar
    51   30   31 ar
    52   30   53 1
    53   31   32 ar
    54   31   54 1
    55   32   33 ar
    56   32   35 1
    57   33   34 ar
    58   33   55 1
    59   34   56 1
    60   35   57 1
    61   35   58 1
    62   35   59 1
@<TRIPOS>MOLECULE
ZINC12503187
   65    70     0     0     0
SMALL
USER_CHARGES

@<TRIPOS>ATOM
      1 C1          7.1529   -5.8985   -2.8062 C.3       1 <0>        -0.1140
      2 C2          5.9660   -5.0463   -2.4374 C.cat     1 <0>         0.3235
      3 N1          4.7646   -5.0596   -3.0629 N.pl3     1 <0>        -0.4949
      4 H1          4.5154   -5.6155   -3.8178 H         1 <0>         0.4648
      5 C3          3.9735   -4.1506   -2.4367 C.2       1 <0>         0.0775
      6 C4          4.7193   -3.6112   -1.4264 C.2       1 <0>         0.0736
      7 N2          5.9293   -4.1798   -1.4587 N.pl3     1 <0>        -0.4619
      8 C5          4.1666   -2.5925   -0.5021 C.ar      1 <0>        -0.0723
      9 C6          4.8674   -1.4533   -0.1436 C.ar      1 <0>        -0.0782
     10 C7          4.2810   -0.5312    0.7045 C.ar      1 <0>        -0.1046
     11 C8          3.0025   -0.7433    1.1897 C.ar      1 <0>        -0.0695
     12 C9          2.2986   -1.8832    0.8449 C.ar      1 <0>        -0.0981
     13 C10         2.8762   -2.8203    0.0081 C.ar      1 <0>         0.1703
     14 N3          2.2374   -4.0150   -0.3170 N.am      1 <0>        -0.5799
     15 C11         1.6221   -4.2466   -1.6279 C.3       1 <0>         0.1144
     16 C12         2.5563   -3.7489   -2.7378 C.3       1 <0>        -0.0744
     17 C13         2.1834   -4.9943    0.6074 C.2       1 <0>         0.5698
     18 O1          1.5504   -6.0080    0.3829 O.2       1 <0>        -0.5062
     19 C14         2.8923   -4.8364    1.8918 C.ar      1 <0>        -0.1604
     20 C15         2.2701   -5.2115    3.0859 C.ar      1 <0>        -0.0355
     21 C16         2.9342   -5.0628    4.2825 C.ar      1 <0>        -0.1237
     22 C17         4.2235   -4.5398    4.3041 C.ar      1 <0>         0.1906
     23 C18         4.8457   -4.1649    3.1172 C.ar      1 <0>        -0.1563
     24 C19         4.1895   -4.3168    1.9166 C.ar      1 <0>        -0.0685
     25 N4          4.8930   -4.3906    5.5171 N.am      1 <0>        -0.6739
     26 C20         4.2002   -4.1130    6.6394 C.2       1 <0>         0.5596
     27 O2          3.0049   -3.8992    6.5788 O.2       1 <0>        -0.4841
     28 C21         4.8927   -4.0686    7.9420 C.ar      1 <0>        -0.1359
     29 C22         6.0360   -4.8393    8.1561 C.ar      1 <0>        -0.0857
     30 C23         6.6790   -4.7940    9.3754 C.ar      1 <0>        -0.1231
     31 C24         6.1971   -3.9865   10.3926 C.ar      1 <0>        -0.0835
     32 C25         5.0675   -3.2172   10.1991 C.ar      1 <0>        -0.1118
     33 C26         4.4077   -3.2448    8.9736 C.ar      1 <0>         0.0159
     34 C27         3.1985   -2.4155    8.7592 C.ar      1 <0>        -0.0482
     35 C28         3.1487   -1.5117    7.6986 C.ar      1 <0>        -0.0828
     36 C29         2.0199   -0.7421    7.5040 C.ar      1 <0>        -0.1175
     37 C30         0.9394   -0.8656    8.3589 C.ar      1 <0>        -0.1116
     38 C31         0.9830   -1.7606    9.4129 C.ar      1 <0>        -0.1177
     39 C32         2.1038   -2.5400    9.6139 C.ar      1 <0>        -0.0973
     40 H2          7.1100   -6.8388   -2.2565 H         1 <0>         0.1250
     41 H3          7.1351   -6.1025   -3.8768 H         1 <0>         0.1204
     42 H4          8.0721   -5.3707   -2.5522 H         1 <0>         0.1197
     43 H5          5.8647   -1.2862   -0.5230 H         1 <0>         0.1348
     44 H6          4.8235    0.3581    0.9895 H         1 <0>         0.1425
     45 H7          2.5502   -0.0125    1.8437 H         1 <0>         0.1426
     46 H8          1.3012   -2.0408    1.2280 H         1 <0>         0.1417
     47 H9          1.4400   -5.3133   -1.7591 H         1 <0>         0.1098
     48 H10         0.6754   -3.7093   -1.6836 H         1 <0>         0.0991
     49 H11         2.4944   -2.6626   -2.8027 H         1 <0>         0.1187
     50 H12         2.2514   -4.1842   -3.6894 H         1 <0>         0.1158
     51 H13         1.2693   -5.6172    3.0698 H         1 <0>         0.1375
     52 H14         2.4539   -5.3522    5.2055 H         1 <0>         0.1478
     53 H15         5.8462   -3.7587    3.1375 H         1 <0>         0.1314
     54 H16         4.6749   -4.0305    0.9952 H         1 <0>         0.1186
     55 H17         5.8575   -4.4866    5.5538 H         1 <0>         0.4140
     56 H18         6.4169   -5.4714    7.3675 H         1 <0>         0.1283
     57 H19         7.5635   -5.3919    9.5382 H         1 <0>         0.1337
     58 H20         6.7084   -3.9590   11.3435 H         1 <0>         0.1348
     59 H21         4.6981   -2.5903   10.9971 H         1 <0>         0.1359
     60 H22         3.9919   -1.4139    7.0309 H         1 <0>         0.1086
     61 H23         1.9802   -0.0417    6.6829 H         1 <0>         0.1193
     62 H24         0.0584   -0.2607    8.2031 H         1 <0>         0.1221
     63 H25         0.1363   -1.8527   10.0771 H         1 <0>         0.1249
     64 H26         2.1349   -3.2418   10.4342 H         1 <0>         0.1223
     65 H27         6.6619   -3.9801   -0.8551 H         1 <0>         0.4622
@<TRIPOS>BOND
     1    1    2 1
     2    1   40 1
     3    1   41 1
     4    1   42 1
     5    2    7 2
     6    2    3 1
     7    3    4 1
     8    3    5 1
     9    5   16 1
    10    5    6 2
    11    6    7 1
    12    6    8 1
    13    7   65 1
    14    8   13 ar
    15    8    9 ar
    16    9   10 ar
    17    9   43 1
    18   10   11 ar
    19   10   44 1
    20   11   12 ar
    21   11   45 1
    22   12   13 ar
    23   12   46 1
    24   13   14 1
    25   14   15 1
    26   14   17 am
    27   15   16 1
    28   15   47 1
    29   15   48 1
    30   16   49 1
    31   16   50 1
    32   17   18 2
    33   17   19 1
    34   19   24 ar
    35   19   20 ar
    36   20   21 ar
    37   20   51 1
    38   21   22 ar
    39   21   52 1
    40   22   23 ar
    41   22   25 1
    42   23   24 ar
    43   23   53 1
    44   24   54 1
    45   25   26 am
    46   25   55 1
    47   26   27 2
    48   26   28 1
    49   28   33 ar
    50   28   29 ar
    51   29   30 ar
    52   29   56 1
    53   30   31 ar
    54   30   57 1
    55   31   32 ar
    56   31   58 1
    57   32   33 ar
    58   32   59 1
    59   33   34 1
    60   34   39 ar
    61   34   35 ar
    62   35   36 ar
    63   35   60 1
    64   36   37 ar
    65   36   61 1
    66   37   38 ar
    67   37   62 1
    68   38   39 ar
    69   38   63 1
    70   39   64 1
@<TRIPOS>MOLECULE
ZINC12503187
   64    69     0     0     0
SMALL
USER_CHARGES

@<TRIPOS>ATOM
      1 C1         -5.1201   10.1139   -2.3917 C.3       1 <0>        -0.0700
      2 C2         -4.4866    8.7544   -2.2447 C.2       1 <0>         0.2150
      3 N1         -3.1612    8.5170   -2.0886 N.pl3     1 <0>        -0.5485
      4 C3         -3.0119    7.1651   -2.0003 C.2       1 <0>        -0.0025
      5 C4         -4.2602    6.6155   -2.0926 C.2       1 <0>         0.0402
      6 N2         -5.1287    7.6135   -2.2416 N.2       1 <0>        -0.4738
      7 C5         -4.5237    5.1359   -2.0107 C.3       1 <0>        -0.0539
      8 C6         -3.9940    4.4354   -3.2668 C.3       1 <0>         0.1200
      9 N3         -2.6766    4.9755   -3.6226 N.am      1 <0>        -0.5633
     10 C7         -1.6793    5.2075   -2.6781 C.ar      1 <0>         0.1542
     11 C8         -1.7985    6.3403   -1.8491 C.ar      1 <0>        -0.0205
     12 C9         -0.8021    6.6378   -0.9315 C.ar      1 <0>        -0.1014
     13 C10         0.2924    5.8005   -0.8178 C.ar      1 <0>        -0.1085
     14 C11         0.3943    4.6714   -1.6114 C.ar      1 <0>        -0.0990
     15 C12        -0.5867    4.3734   -2.5404 C.ar      1 <0>        -0.1025
     16 C13        -2.4215    5.2589   -4.9153 C.2       1 <0>         0.5680
     17 O1         -3.2378    4.9781   -5.7718 O.2       1 <0>        -0.5198
     18 C14        -1.1519    5.9099   -5.2912 C.ar      1 <0>        -0.1463
     19 C15        -0.4454    5.4709   -6.4146 C.ar      1 <0>        -0.0427
     20 C16         0.7385    6.0808   -6.7628 C.ar      1 <0>        -0.1265
     21 C17         1.2324    7.1329   -5.9976 C.ar      1 <0>         0.1768
     22 C18         0.5318    7.5721   -4.8783 C.ar      1 <0>        -0.1539
     23 C19        -0.6559    6.9707   -4.5282 C.ar      1 <0>        -0.0623
     24 N4          2.4315    7.7477   -6.3526 N.am      1 <0>        -0.6709
     25 C20         3.4106    7.0285   -6.9361 C.2       1 <0>         0.5565
     26 O2          3.2859    5.8263   -7.0677 O.2       1 <0>        -0.4873
     27 C21         4.6343    7.7003   -7.4152 C.ar      1 <0>        -0.1304
     28 C22         4.5895    9.0342   -7.8220 C.ar      1 <0>        -0.0857
     29 C23         5.7362    9.6570   -8.2689 C.ar      1 <0>        -0.1237
     30 C24         6.9359    8.9663   -8.3172 C.ar      1 <0>        -0.0877
     31 C25         6.9992    7.6461   -7.9192 C.ar      1 <0>        -0.1129
     32 C26         5.8542    7.0017   -7.4591 C.ar      1 <0>         0.0140
     33 C27         5.9190    5.5866   -7.0242 C.ar      1 <0>        -0.0467
     34 C28         5.4912    5.2268   -5.7467 C.ar      1 <0>        -0.0803
     35 C29         5.5535    3.9073   -5.3475 C.ar      1 <0>        -0.1162
     36 C30         6.0391    2.9425   -6.2118 C.ar      1 <0>        -0.1126
     37 C31         6.4649    3.2935   -7.4803 C.ar      1 <0>        -0.1199
     38 C32         6.4025    4.6088   -7.8927 C.ar      1 <0>        -0.0988
     39 H1         -5.3778   10.5031   -1.4067 H         1 <0>         0.0834
     40 H2         -4.4179   10.7913   -2.8778 H         1 <0>         0.0750
     41 H3         -6.0228   10.0306   -2.9970 H         1 <0>         0.0940
     42 H4         -4.0244    4.7280   -1.1318 H         1 <0>         0.0817
     43 H5         -5.5968    4.9641   -1.9265 H         1 <0>         0.0977
     44 H6         -3.9071    3.3658   -3.0753 H         1 <0>         0.0791
     45 H7         -4.6872    4.5988   -4.0920 H         1 <0>         0.1017
     46 H8         -0.8804    7.5178   -0.3103 H         1 <0>         0.1262
     47 H9          1.0720    6.0290   -0.1061 H         1 <0>         0.1303
     48 H10         1.2474    4.0176   -1.5049 H         1 <0>         0.1313
     49 H11        -0.4985    3.4904   -3.1559 H         1 <0>         0.1311
     50 H12        -0.8278    4.6540   -7.0085 H         1 <0>         0.1347
     51 H13         1.2849    5.7421   -7.6307 H         1 <0>         0.1429
     52 H14         0.9180    8.3887   -4.2864 H         1 <0>         0.1285
     53 H15        -1.2014    7.3150   -3.6620 H         1 <0>         0.1303
     54 H16         2.5614    8.6933   -6.1799 H         1 <0>         0.4118
     55 H17         3.6575    9.5787   -7.7873 H         1 <0>         0.1295
     56 H18         5.6983   10.6895   -8.5835 H         1 <0>         0.1324
     57 H19         7.8276    9.4639   -8.6688 H         1 <0>         0.1326
     58 H20         7.9383    7.1143   -7.9601 H         1 <0>         0.1341
     59 H21         5.1123    5.9792   -5.0710 H         1 <0>         0.1102
     60 H22         5.2229    3.6274   -4.3582 H         1 <0>         0.1203
     61 H23         6.0863    1.9111   -5.8948 H         1 <0>         0.1211
     62 H24         6.8434    2.5359   -8.1506 H         1 <0>         0.1231
     63 H25         6.7314    4.8811   -8.8848 H         1 <0>         0.1210
     64 H26        -2.4553    9.1811   -2.0476 H         1 <0>         0.4199
@<TRIPOS>BOND
     1    1   39 1
     2    1   40 1
     3    1   41 1
     4    1    2 1
     5    2    6 2
     6    2    3 1
     7    3    4 1
     8    3   64 1
     9    4    5 2
    10    4   11 1
    11    5    6 1
    12    5    7 1
    13    7    8 1
    14    7   42 1
    15    7   43 1
    16    8    9 1
    17    8   44 1
    18    8   45 1
    19    9   10 1
    20    9   16 am
    21   10   15 ar
    22   10   11 ar
    23   11   12 ar
    24   12   13 ar
    25   12   46 1
    26   13   14 ar
    27   13   47 1
    28   14   15 ar
    29   14   48 1
    30   15   49 1
    31   16   17 2
    32   16   18 1
    33   18   23 ar
    34   18   19 ar
    35   19   20 ar
    36   19   50 1
    37   20   21 ar
    38   20   51 1
    39   21   22 ar
    40   21   24 1
    41   22   23 ar
    42   22   52 1
    43   23   53 1
    44   24   25 am
    45   24   54 1
    46   25   26 2
    47   25   27 1
    48   27   32 ar
    49   27   28 ar
    50   28   29 ar
    51   28   55 1
    52   29   30 ar
    53   29   56 1
    54   30   31 ar
    55   30   57 1
    56   31   32 ar
    57   31   58 1
    58   32   33 1
    59   33   38 ar
    60   33   34 ar
    61   34   35 ar
    62   34   59 1
    63   35   36 ar
    64   35   60 1
    65   36   37 ar
    66   36   61 1
    67   37   38 ar
    68   37   62 1
    69   38   63 1
@<TRIPOS>MOLECULE
ZINC12503187
   64    69     0     0     0
SMALL
USER_CHARGES

@<TRIPOS>ATOM
      1 C1          7.1529   -5.8981   -2.8062 C.3       1 <0>        -0.0691
      2 C2          5.9660   -5.0460   -2.4374 C.2       1 <0>         0.2061
      3 N1          4.7646   -5.0593   -3.0629 N.pl3     1 <0>        -0.5487
      4 H1          4.5155   -5.6152   -3.8178 H         1 <0>         0.4214
      5 C3          3.9734   -4.1504   -2.4367 C.2       1 <0>        -0.0067
      6 C4          4.7192   -3.6110   -1.4263 C.2       1 <0>         0.0380
      7 N2          5.9292   -4.1795   -1.4586 N.2       1 <0>        -0.4637
      8 C5          4.1665   -2.5923   -0.5021 C.ar      1 <0>        -0.0043
      9 C6          4.8672   -1.4531   -0.1435 C.ar      1 <0>        -0.0875
     10 C7          4.2807   -0.5311    0.7046 C.ar      1 <0>        -0.1101
     11 C8          3.0022   -0.7433    1.1898 C.ar      1 <0>        -0.1041
     12 C9          2.2984   -1.8833    0.8450 C.ar      1 <0>        -0.1046
     13 C10         2.8761   -2.8202    0.0082 C.ar      1 <0>         0.1395
     14 N3          2.2374   -4.0150   -0.3169 N.am      1 <0>        -0.5620
     15 C11         1.6212   -4.2463   -1.6275 C.3       1 <0>         0.1197
     16 C12         2.5562   -3.7487   -2.7377 C.3       1 <0>        -0.0592
     17 C13         2.1834   -4.9943    0.6074 C.2       1 <0>         0.5718
     18 O1          1.5505   -6.0081    0.3829 O.2       1 <0>        -0.5267
     19 C14         2.8922   -4.8364    1.8918 C.ar      1 <0>        -0.1518
     20 C15         2.2701   -5.2115    3.0859 C.ar      1 <0>        -0.0445
     21 C16         2.9342   -5.0629    4.2825 C.ar      1 <0>        -0.1302
     22 C17         4.2235   -4.5398    4.3041 C.ar      1 <0>         0.1763
     23 C18         4.8457   -4.1649    3.1172 C.ar      1 <0>        -0.1511
     24 C19         4.1895   -4.3168    1.9166 C.ar      1 <0>        -0.0570
     25 N4          4.8930   -4.3906    5.5171 N.am      1 <0>        -0.6700
     26 C20         4.2002   -4.1130    6.6394 C.2       1 <0>         0.5562
     27 O2          3.0049   -3.8992    6.5788 O.2       1 <0>        -0.4887
     28 C21         4.8927   -4.0686    7.9420 C.ar      1 <0>        -0.1295
     29 C22         6.0360   -4.8393    8.1561 C.ar      1 <0>        -0.0855
     30 C23         6.6790   -4.7940    9.3754 C.ar      1 <0>        -0.1237
     31 C24         6.1971   -3.9865   10.3926 C.ar      1 <0>        -0.0884
     32 C25         5.0675   -3.2172   10.1990 C.ar      1 <0>        -0.1132
     33 C26         4.4077   -3.2448    8.9736 C.ar      1 <0>         0.0134
     34 C27         3.1985   -2.4155    8.7592 C.ar      1 <0>        -0.0460
     35 C28         3.1487   -1.5117    7.6986 C.ar      1 <0>        -0.0797
     36 C29         2.0199   -0.7421    7.5040 C.ar      1 <0>        -0.1160
     37 C30         0.9394   -0.8656    8.3589 C.ar      1 <0>        -0.1131
     38 C31         0.9830   -1.7606    9.4129 C.ar      1 <0>        -0.1204
     39 C32         2.1038   -2.5400    9.6139 C.ar      1 <0>        -0.0991
     40 H2          7.1101   -6.8384   -2.2565 H         1 <0>         0.0820
     41 H3          7.1351   -6.1020   -3.8769 H         1 <0>         0.0751
     42 H4          8.0721   -5.3702   -2.5522 H         1 <0>         0.0932
     43 H5          5.8644   -1.2859   -0.5228 H         1 <0>         0.1315
     44 H6          4.8232    0.3582    0.9896 H         1 <0>         0.1292
     45 H7          2.5499   -0.0126    1.8439 H         1 <0>         0.1288
     46 H8          1.3010   -2.0409    1.2281 H         1 <0>         0.1280
     47 H9          1.4386   -5.3128   -1.7587 H         1 <0>         0.0983
     48 H10         0.6747   -3.7085   -1.6827 H         1 <0>         0.0813
     49 H11         2.4942   -2.6624   -2.8026 H         1 <0>         0.0937
     50 H12         2.2513   -4.1841   -3.6893 H         1 <0>         0.0887
     51 H13         1.2693   -5.6172    3.0698 H         1 <0>         0.1320
     52 H14         2.4539   -5.3522    5.2055 H         1 <0>         0.1417
     53 H15         5.8461   -3.7586    3.1375 H         1 <0>         0.1304
     54 H16         4.6749   -4.0305    0.9953 H         1 <0>         0.1428
     55 H17         5.8575   -4.4866    5.5538 H         1 <0>         0.4121
     56 H18         6.4169   -5.4714    7.3675 H         1 <0>         0.1300
     57 H19         7.5635   -5.3919    9.5382 H         1 <0>         0.1322
     58 H20         6.7084   -3.9590   11.3435 H         1 <0>         0.1321
     59 H21         4.6981   -2.5903   10.9971 H         1 <0>         0.1337
     60 H22         3.9919   -1.4139    7.0309 H         1 <0>         0.1109
     61 H23         1.9802   -0.0417    6.6829 H         1 <0>         0.1204
     62 H24         0.0584   -0.2607    8.2031 H         1 <0>         0.1207
     63 H25         0.1363   -1.8527   10.0771 H         1 <0>         0.1226
     64 H26         2.1349   -3.2418   10.4342 H         1 <0>         0.1207
@<TRIPOS>BOND
     1    1    2 1
     2    1   40 1
     3    1   41 1
     4    1   42 1
     5    2    7 2
     6    2    3 1
     7    3    4 1
     8    3    5 1
     9    5   16 1
    10    5    6 2
    11    6    7 1
    12    6    8 1
    13    8   13 ar
    14    8    9 ar
    15    9   10 ar
    16    9   43 1
    17   10   11 ar
    18   10   44 1
    19   11   12 ar
    20   11   45 1
    21   12   13 ar
    22   12   46 1
    23   13   14 1
    24   14   15 1
    25   14   17 am
    26   15   16 1
    27   15   47 1
    28   15   48 1
    29   16   49 1
    30   16   50 1
    31   17   18 2
    32   17   19 1
    33   19   24 ar
    34   19   20 ar
    35   20   21 ar
    36   20   51 1
    37   21   22 ar
    38   21   52 1
    39   22   23 ar
    40   22   25 1
    41   23   24 ar
    42   23   53 1
    43   24   54 1
    44   25   26 am
    45   25   55 1
    46   26   27 2
    47   26   28 1
    48   28   33 ar
    49   28   29 ar
    50   29   30 ar
    51   29   56 1
    52   30   31 ar
    53   30   57 1
    54   31   32 ar
    55   31   58 1
    56   32   33 ar
    57   32   59 1
    58   33   34 1
    59   34   39 ar
    60   34   35 ar
    61   35   36 ar
    62   35   60 1
    63   36   37 ar
    64   36   61 1
    65   37   38 ar
    66   37   62 1
    67   38   39 ar
    68   38   63 1
    69   39   64 1
@<TRIPOS>MOLECULE
ZINC03824080
   70    74     0     0     0
SMALL
USER_CHARGES

@<TRIPOS>ATOM
      1 C1         -0.8555   -1.3236    1.6511 C.3       1 <0>        -0.1770
      2 C2         -0.6345   -0.4699    0.4290 C.2       1 <0>         0.5151
      3 O1         -0.6921    0.7385    0.5150 O.2       1 <0>        -0.5412
      4 N1         -0.3729   -1.0493   -0.7594 N.am      1 <0>        -0.6201
      5 C3         -0.0166   -0.2330   -1.9279 C.3       1 <0>         0.1141
      6 C4         -0.9548   -0.5918   -3.0846 C.3       1 <0>        -0.1296
      7 C5         -0.8992   -2.1011   -3.3317 C.3       1 <0>         0.0853
      8 C6         -1.3714   -2.8426   -2.0790 C.3       1 <0>        -0.1634
      9 C7         -0.4325   -2.5096   -0.9095 C.3       1 <0>         0.1093
     10 O2         -1.7488   -2.4351   -4.4312 O.3       1 <0>        -0.3016
     11 C8         -1.4943   -3.6030   -5.0738 C.ar      1 <0>         0.1963
     12 C9         -0.4273   -4.3992   -4.6679 C.ar      1 <0>        -0.2545
     13 C10        -0.1623   -5.5844   -5.3137 C.ar      1 <0>        -0.0091
     14 C11        -0.9669   -5.9925   -6.3824 C.ar      1 <0>        -0.2054
     15 C12        -2.0420   -5.1889   -6.7905 C.ar      1 <0>         0.2203
     16 C13        -2.3019   -4.0009   -6.1287 C.ar      1 <0>        -0.2524
     17 O3         -2.8275   -5.5772   -7.8261 O.3       1 <0>        -0.2917
     18 C14        -3.9035   -4.7083   -8.1856 C.3       1 <0>         0.0222
     19 C15        -0.6862   -7.2608   -7.0770 C.2       1 <0>         0.5773
     20 O4         -0.6315   -7.2897   -8.2916 O.2       1 <0>        -0.5208
     21 N2         -0.4902   -8.3892   -6.3665 N.am      1 <0>        -0.6117
     22 C16        -0.0913   -9.6351   -7.0353 C.3       1 <0>         0.1203
     23 C17        -1.0736  -10.7426   -6.6412 C.3       1 <0>        -0.1535
     24 C18        -1.1393  -10.8415   -5.1155 C.3       1 <0>         0.1558
     25 C19        -1.6465   -9.5180   -4.5382 C.3       1 <0>        -0.1547
     26 C20        -0.6653   -8.3953   -4.9077 C.3       1 <0>         0.1104
     27 N3         -2.0528  -11.9218   -4.7353 N.am      1 <0>        -0.5595
     28 C21        -1.5930  -13.0024   -3.9731 C.ar      1 <0>         0.1662
     29 C22        -0.3829  -12.9426   -3.3007 C.ar      1 <0>        -0.1511
     30 C23         0.0413  -14.0274   -2.5566 C.ar      1 <0>        -0.0771
     31 C24        -0.7382  -15.1674   -2.4831 C.ar      1 <0>        -0.1406
     32 C25        -1.9470  -15.2294   -3.1541 C.ar      1 <0>        -0.0671
     33 C26        -2.3741  -14.1507   -3.8980 C.ar      1 <0>        -0.1782
     34 C27        -3.6840  -14.1895   -4.6436 C.3       1 <0>         0.1149
     35 O5         -4.1989  -12.8586   -4.7432 O.3       1 <0>        -0.3394
     36 C28        -3.3482  -11.8840   -5.1110 C.2       1 <0>         0.6584
     37 O6         -3.7494  -10.9621   -5.7934 O.2       1 <0>        -0.4904
     38 H1         -1.9171   -1.5507    1.7485 H         1 <0>         0.0952
     39 H2         -0.2929   -2.2519    1.5524 H         1 <0>         0.0827
     40 H3         -0.5163   -0.7856    2.5363 H         1 <0>         0.0956
     41 H4         -0.1263    0.8234   -1.6828 H         1 <0>         0.1035
     42 H5          1.0143   -0.4382   -2.2164 H         1 <0>         0.0729
     43 H6         -1.9742   -0.3022   -2.8294 H         1 <0>         0.0810
     44 H7         -0.6406   -0.0639   -3.9850 H         1 <0>         0.0889
     45 H8          0.1250   -2.3938   -3.5625 H         1 <0>         0.0812
     46 H9         -2.3869   -2.5318   -1.8333 H         1 <0>         0.0826
     47 H10        -1.3538   -3.9167   -2.2636 H         1 <0>         0.0871
     48 H11         0.5651   -2.8967   -1.1167 H         1 <0>         0.0750
     49 H12        -0.8167   -2.9559    0.0078 H         1 <0>         0.0972
     50 H13         0.1951   -4.0852   -3.8430 H         1 <0>         0.1377
     51 H14         0.6667   -6.1992   -4.9959 H         1 <0>         0.1381
     52 H15        -3.1312   -3.3816   -6.4370 H         1 <0>         0.1437
     53 H16        -4.5759   -4.5917   -7.3357 H         1 <0>         0.0598
     54 H17        -3.5047   -3.7344   -8.4696 H         1 <0>         0.0609
     55 H18        -4.4506   -5.1359   -9.0258 H         1 <0>         0.1056
     56 H19        -0.1146   -9.4935   -8.1158 H         1 <0>         0.1010
     57 H20         0.9157   -9.9115   -6.7226 H         1 <0>         0.0706
     58 H21        -2.0631  -10.5078   -7.0335 H         1 <0>         0.0951
     59 H22        -0.7345  -11.6931   -7.0532 H         1 <0>         0.0783
     60 H23        -0.1448  -11.0518   -4.7220 H         1 <0>         0.1028
     61 H24        -2.6306   -9.2948   -4.9503 H         1 <0>         0.0947
     62 H25        -1.7153   -9.5970   -3.4532 H         1 <0>         0.0793
     63 H26         0.2958   -8.5726   -4.4251 H         1 <0>         0.0727
     64 H27        -1.0675   -7.4353   -4.5840 H         1 <0>         0.0968
     65 H28         0.2261  -12.0525   -3.3581 H         1 <0>         0.1333
     66 H29         0.9842  -13.9848   -2.0315 H         1 <0>         0.1326
     67 H30        -0.4024  -16.0123   -1.9003 H         1 <0>         0.1309
     68 H31        -2.5538  -16.1209   -3.0953 H         1 <0>         0.1349
     69 H32        -3.5236  -14.5947   -5.6427 H         1 <0>         0.0856
     70 H33        -4.3935  -14.8160   -4.1030 H         1 <0>         0.1272
@<TRIPOS>BOND
     1    1    2 1
     2    1   38 1
     3    1   39 1
     4    1   40 1
     5    2    3 2
     6    2    4 am
     7    4    9 1
     8    4    5 1
     9    5    6 1
    10    5   41 1
    11    5   42 1
    12    6    7 1
    13    6   43 1
    14    6   44 1
    15    7    8 1
    16    7   10 1
    17    7   45 1
    18    8    9 1
    19    8   46 1
    20    8   47 1
    21    9   48 1
    22    9   49 1
    23   10   11 1
    24   11   16 ar
    25   11   12 ar
    26   12   13 ar
    27   12   50 1
    28   13   14 ar
    29   13   51 1
    30   14   15 ar
    31   14   19 1
    32   15   16 ar
    33   15   17 1
    34   16   52 1
    35   17   18 1
    36   18   53 1
    37   18   54 1
    38   18   55 1
    39   19   20 2
    40   19   21 am
    41   21   26 1
    42   21   22 1
    43   22   23 1
    44   22   56 1
    45   22   57 1
    46   23   24 1
    47   23   58 1
    48   23   59 1
    49   24   25 1
    50   24   27 1
    51   24   60 1
    52   25   26 1
    53   25   61 1
    54   25   62 1
    55   26   63 1
    56   26   64 1
    57   27   36 am
    58   27   28 1
    59   28   33 ar
    60   28   29 ar
    61   29   30 ar
    62   29   65 1
    63   30   31 ar
    64   30   66 1
    65   31   32 ar
    66   31   67 1
    67   32   33 ar
    68   32   68 1
    69   33   34 1
    70   34   35 1
    71   34   69 1
    72   34   70 1
    73   35   36 1
    74   36   37 2
@<TRIPOS>MOLECULE
ZINC03796262
   64    67     0     0     0
SMALL
USER_CHARGES
N-[3-[4-[[4-(2-oxo-3,4-dihydroquinolin-1-yl)-1-piperidyl]carbonyl]phenoxy]propyl]acetamide
@<TRIPOS>ATOM
      1 C1        -10.4432   11.2489  -10.7431 C.3       1 <0>        -0.1752
      2 C2         -9.0870   11.0631  -10.1130 C.2       1 <0>         0.5102
      3 O1         -8.0833   11.2540  -10.7666 O.2       1 <0>        -0.5437
      4 N1         -8.9894   10.6849   -8.8231 N.am      1 <0>        -0.7336
      5 C3         -7.6709   10.5042   -8.2105 C.3       1 <0>         0.1202
      6 C4         -7.8408   10.0766   -6.7513 C.3       1 <0>        -0.1310
      7 C5         -6.4639    9.8879   -6.1115 C.3       1 <0>         0.0602
      8 O2         -6.6225    9.4885   -4.7487 O.3       1 <0>        -0.3099
      9 C6         -5.4892    9.2776   -4.0325 C.ar      1 <0>         0.1531
     10 C7         -5.5732    8.8874   -2.7011 C.ar      1 <0>        -0.1552
     11 C8         -4.4256    8.6729   -1.9709 C.ar      1 <0>        -0.0522
     12 C9         -3.1755    8.8476   -2.5702 C.ar      1 <0>        -0.1661
     13 C10        -3.0953    9.2452   -3.9074 C.ar      1 <0>        -0.0248
     14 C11        -4.2476    9.4521   -4.6325 C.ar      1 <0>        -0.2114
     15 C12        -1.9428    8.6187   -1.7912 C.2       1 <0>         0.5687
     16 O3         -1.0691    9.4640   -1.7735 O.2       1 <0>        -0.5320
     17 N2         -1.7859    7.4727   -1.0994 N.am      1 <0>        -0.6064
     18 C13        -0.5315    7.1942   -0.3869 C.3       1 <0>         0.1181
     19 C14        -0.0014    5.8292   -0.8371 C.3       1 <0>        -0.1510
     20 C15        -1.0885    4.7716   -0.6328 C.3       1 <0>         0.1418
     21 C16        -2.3095    5.1211   -1.4867 C.3       1 <0>        -0.1527
     22 C17        -2.8658    6.4780   -1.0439 C.3       1 <0>         0.1030
     23 N3         -0.5736    3.4592   -1.0313 N.am      1 <0>        -0.5492
     24 C18        -0.5197    2.4213   -0.0960 C.ar      1 <0>         0.1633
     25 C19        -1.2795    2.4868    1.0644 C.ar      1 <0>        -0.1549
     26 C20        -1.2214    1.4587    1.9842 C.ar      1 <0>        -0.0879
     27 C21        -0.4085    0.3644    1.7505 C.ar      1 <0>        -0.1406
     28 C22         0.3488    0.2959    0.5955 C.ar      1 <0>        -0.0821
     29 C23         0.2953    1.3214   -0.3277 C.ar      1 <0>        -0.1245
     30 C24         1.1197    1.2508   -1.5868 C.3       1 <0>        -0.0774
     31 C25         0.3586    1.9165   -2.7338 C.3       1 <0>        -0.1392
     32 C26        -0.1563    3.2608   -2.2951 C.2       1 <0>         0.5195
     33 O4         -0.1960    4.1760   -3.0901 O.2       1 <0>        -0.5145
     34 H1        -10.9936   12.0178  -10.2009 H         1 <0>         0.0894
     35 H2        -10.3222   11.5536  -11.7827 H         1 <0>         0.0940
     36 H3        -10.9949   10.3098  -10.7016 H         1 <0>         0.0893
     37 H4         -9.7921   10.5322   -8.3003 H         1 <0>         0.4035
     38 H5         -7.1193   11.4434   -8.2519 H         1 <0>         0.0723
     39 H6         -7.1206    9.7354   -8.7527 H         1 <0>         0.0721
     40 H7         -8.3925    9.1374   -6.7098 H         1 <0>         0.0834
     41 H8         -8.3911   10.8455   -6.2090 H         1 <0>         0.0836
     42 H9         -5.9122   10.8271   -6.1530 H         1 <0>         0.0704
     43 H10        -5.9135    9.1190   -6.6538 H         1 <0>         0.0701
     44 H11        -6.5398    8.7525   -2.2386 H         1 <0>         0.1389
     45 H12        -4.4916    8.3696   -0.9364 H         1 <0>         0.1367
     46 H13        -2.1310    9.3856   -4.3729 H         1 <0>         0.1335
     47 H14        -4.1865    9.7547   -5.6674 H         1 <0>         0.1361
     48 H15        -0.7172    7.1780    0.6871 H         1 <0>         0.0707
     49 H16         0.2023    7.9659   -0.6193 H         1 <0>         0.0993
     50 H17         0.8766    5.5672   -0.2467 H         1 <0>         0.0774
     51 H18         0.2695    5.8735   -1.8919 H         1 <0>         0.0939
     52 H19        -1.3762    4.7449    0.4182 H         1 <0>         0.0975
     53 H20        -2.0173    5.1724   -2.5355 H         1 <0>         0.0939
     54 H21        -3.0743    4.3550   -1.3587 H         1 <0>         0.0780
     55 H22        -3.2418    6.4034   -0.0235 H         1 <0>         0.0737
     56 H23        -3.6732    6.7775   -1.7120 H         1 <0>         0.1008
     57 H24        -1.9146    3.3410    1.2476 H         1 <0>         0.1283
     58 H25        -1.8112    1.5092    2.8875 H         1 <0>         0.1282
     59 H26        -0.3654   -0.4385    2.4714 H         1 <0>         0.1263
     60 H27         0.9826   -0.5599    0.4156 H         1 <0>         0.1294
     61 H28         1.3129    0.2075   -1.8363 H         1 <0>         0.0919
     62 H29         2.0663    1.7682   -1.4305 H         1 <0>         0.0828
     63 H30         1.0269    2.0450   -3.5852 H         1 <0>         0.1093
     64 H31        -0.4805    1.2851   -3.0260 H         1 <0>         0.1027
@<TRIPOS>BOND
     1    1    2 1
     2    1   34 1
     3    1   35 1
     4    1   36 1
     5    2    3 2
     6    2    4 am
     7    4    5 1
     8    4   37 1
     9    5    6 1
    10    5   38 1
    11    5   39 1
    12    6    7 1
    13    6   40 1
    14    6   41 1
    15    7    8 1
    16    7   42 1
    17    7   43 1
    18    8    9 1
    19    9   14 ar
    20    9   10 ar
    21   10   11 ar
    22   10   44 1
    23   11   12 ar
    24   11   45 1
    25   12   13 ar
    26   12   15 1
    27   13   14 ar
    28   13   46 1
    29   14   47 1
    30   15   16 2
    31   15   17 am
    32   17   22 1
    33   17   18 1
    34   18   19 1
    35   18   48 1
    36   18   49 1
    37   19   20 1
    38   19   50 1
    39   19   51 1
    40   20   21 1
    41   20   23 1
    42   20   52 1
    43   21   22 1
    44   21   53 1
    45   21   54 1
    46   22   55 1
    47   22   56 1
    48   23   32 am
    49   23   24 1
    50   24   29 ar
    51   24   25 ar
    52   25   26 ar
    53   25   57 1
    54   26   27 ar
    55   26   58 1
    56   27   28 ar
    57   27   59 1
    58   28   29 ar
    59   28   60 1
    60   29   30 1
    61   30   31 1
    62   30   61 1
    63   30   62 1
    64   31   32 1
    65   31   63 1
    66   31   64 1
    67   32   33 2
@<TRIPOS>MOLECULE
ZINC00538658
   57    60     0     0     0
SMALL
USER_CHARGES
N-[4-[(10-chloro-2-hydroxy-6-azabicyclo[5.4.0]undeca-7,9,11-trien-6-yl)carbonyl]-3-methyl-phenyl]-2-methyl-benzamide
@<TRIPOS>ATOM
      1 C1         -1.3757    5.9647    0.6767 C.3       1 <0>        -0.1290
      2 C2         -2.7198    5.3058    0.5027 C.ar      1 <0>        -0.0155
      3 C3         -3.8703    5.9757    0.8651 C.ar      1 <0>        -0.1314
      4 C4         -5.1050    5.3726    0.7052 C.ar      1 <0>        -0.0829
      5 C5         -5.1953    4.0949    0.1814 C.ar      1 <0>        -0.1345
      6 C6         -4.0533    3.4158   -0.1890 C.ar      1 <0>        -0.0808
      7 C7         -2.8037    4.0167   -0.0258 C.ar      1 <0>        -0.1476
      8 C8         -1.5754    3.2934   -0.4167 C.2       1 <0>         0.5618
      9 O1         -0.4903    3.8267   -0.2920 O.2       1 <0>        -0.5041
     10 N1         -1.6587    2.0424   -0.9113 N.am      1 <0>        -0.6713
     11 C9         -0.4972    1.3302   -1.2041 C.ar      1 <0>         0.1738
     12 C10         0.6127    1.9934   -1.7192 C.ar      1 <0>        -0.1278
     13 C11         1.7594    1.2921   -2.0149 C.ar      1 <0>        -0.0584
     14 C12         1.8086   -0.0879   -1.7971 C.ar      1 <0>        -0.1449
     15 C13         0.6924   -0.7507   -1.2797 C.ar      1 <0>        -0.0154
     16 C14        -0.4516   -0.0432   -0.9862 C.ar      1 <0>        -0.1510
     17 C15         0.7411   -2.2382   -1.0430 C.3       1 <0>        -0.1157
     18 C16         3.0362   -0.8431   -2.1134 C.2       1 <0>         0.5832
     19 O2          2.9732   -1.8481   -2.7949 O.2       1 <0>        -0.5161
     20 N2          4.2274   -0.4188   -1.6469 N.am      1 <0>        -0.5561
     21 C17         5.4509   -1.2097   -1.8594 C.3       1 <0>         0.1207
     22 C18         6.2022   -0.6994   -3.0663 C.3       1 <0>        -0.1351
     23 C19         6.7169    0.7241   -2.9078 C.3       1 <0>        -0.1085
     24 C20         5.5701    1.7298   -2.9133 C.3       1 <0>         0.1498
     25 H1          5.9377    2.6994   -3.2493 H         1 <0>         0.0703
     26 C21         5.0123    1.8582   -1.5063 C.ar      1 <0>        -0.1275
     27 C22         4.3402    0.7889   -0.9512 C.ar      1 <0>         0.1640
     28 C23         3.7816    0.9191    0.3147 C.ar      1 <0>        -0.1038
     29 C24         3.9289    2.1039    1.0101 C.ar      1 <0>        -0.0889
     30 C25         4.6306    3.1578    0.4520 C.ar      1 <0>        -0.0302
     31 C26         5.1701    3.0326   -0.8031 C.ar      1 <0>        -0.0883
     32 Cl1         4.8295    4.6352    1.3415 Cl        1 <0>        -0.0614
     33 O3          4.5420    1.2768   -3.7964 O.3       1 <0>        -0.5440
     34 H2         -1.0683    6.4175   -0.2660 H         1 <0>         0.0761
     35 H3         -1.4455    6.7354    1.4443 H         1 <0>         0.0604
     36 H4         -0.6411    5.2178    0.9775 H         1 <0>         0.1004
     37 H5         -3.8068    6.9732    1.2742 H         1 <0>         0.1318
     38 H6         -6.0025    5.9014    0.9902 H         1 <0>         0.1298
     39 H7         -6.1623    3.6299    0.0589 H         1 <0>         0.1308
     40 H8         -4.1254    2.4203   -0.6015 H         1 <0>         0.1252
     41 H9         -2.5270    1.6378   -1.0634 H         1 <0>         0.4116
     42 H10         0.5739    3.0595   -1.8875 H         1 <0>         0.1429
     43 H11         2.6205    1.8074   -2.4143 H         1 <0>         0.1241
     44 H12        -1.3147   -0.5549   -0.5866 H         1 <0>         0.1328
     45 H13         0.4992   -2.7615   -1.9680 H         1 <0>         0.0836
     46 H14         1.7416   -2.5216   -0.7162 H         1 <0>         0.0670
     47 H15         0.0177   -2.5075   -0.2734 H         1 <0>         0.0685
     48 H16         6.0881   -1.1324   -0.9785 H         1 <0>         0.0752
     49 H17         5.1824   -2.2544   -2.0167 H         1 <0>         0.0937
     50 H18         7.0505   -1.3580   -3.2530 H         1 <0>         0.0739
     51 H19         5.5393   -0.7361   -3.9308 H         1 <0>         0.0844
     52 H20         7.2585    0.8052   -1.9653 H         1 <0>         0.0747
     53 H21         7.3950    0.9524   -3.7300 H         1 <0>         0.0767
     54 H22         3.2349    0.0974    0.7533 H         1 <0>         0.1342
     55 H23         3.4949    2.2077    1.9935 H         1 <0>         0.1378
     56 H24         5.7138    3.8576   -1.2391 H         1 <0>         0.1391
     57 H25         3.7797    1.8693   -3.8493 H         1 <0>         0.3720
@<TRIPOS>BOND
     1    1    2 1
     2    1   34 1
     3    1   35 1
     4    1   36 1
     5    2    7 ar
     6    2    3 ar
     7    3    4 ar
     8    3   37 1
     9    4    5 ar
    10    4   38 1
    11    5    6 ar
    12    5   39 1
    13    6    7 ar
    14    6   40 1
    15    7    8 1
    16    8    9 2
    17    8   10 am
    18   10   11 1
    19   10   41 1
    20   11   16 ar
    21   11   12 ar
    22   12   13 ar
    23   12   42 1
    24   13   14 ar
    25   13   43 1
    26   14   15 ar
    27   14   18 1
    28   15   16 ar
    29   15   17 1
    30   16   44 1
    31   17   45 1
    32   17   46 1
    33   17   47 1
    34   18   19 2
    35   18   20 am
    36   20   27 1
    37   20   21 1
    38   21   22 1
    39   21   48 1
    40   21   49 1
    41   22   23 1
    42   22   50 1
    43   22   51 1
    44   23   24 1
    45   23   52 1
    46   23   53 1
    47   24   25 1
    48   24   26 1
    49   24   33 1
    50   26   31 ar
    51   26   27 ar
    52   27   28 ar
    53   28   29 ar
    54   28   54 1
    55   29   30 ar
    56   29   55 1
    57   30   31 ar
    58   30   32 1
    59   31   56 1
    60   33   57 1
@<TRIPOS>MOLECULE
ZINC01490477
   57    60     0     0     0
SMALL
USER_CHARGES

@<TRIPOS>ATOM
      1 C1          1.0839    1.7924    0.2286 C.3       1 <0>        -0.1317
      2 C2          0.8063    0.3183    0.0839 C.ar      1 <0>        -0.0150
      3 C3          0.7577   -0.2564   -1.1695 C.ar      1 <0>        -0.1315
      4 C4          0.5025   -1.6094   -1.3041 C.ar      1 <0>        -0.0826
      5 C5          0.2943   -2.3953   -0.1843 C.ar      1 <0>        -0.1345
      6 C6          0.3400   -1.8335    1.0746 C.ar      1 <0>        -0.0807
      7 C7          0.6033   -0.4698    1.2178 C.ar      1 <0>        -0.1484
      8 C8          0.6598    0.1378    2.5640 C.2       1 <0>         0.5618
      9 O1          0.8337    1.3349    2.6836 O.2       1 <0>        -0.5025
     10 N1          0.5187   -0.6353    3.6589 N.am      1 <0>        -0.6697
     11 C9          0.4825   -0.0519    4.9239 C.ar      1 <0>         0.1793
     12 C10        -0.0511    1.2233    5.0854 C.ar      1 <0>        -0.1341
     13 C11        -0.0879    1.8026    6.3334 C.ar      1 <0>        -0.0571
     14 C12         0.4110    1.1084    7.4394 C.ar      1 <0>        -0.1511
     15 C13         0.9456   -0.1721    7.2738 C.ar      1 <0>        -0.0089
     16 C14         0.9747   -0.7479    6.0236 C.ar      1 <0>        -0.1569
     17 C15         1.4850   -0.9239    8.4633 C.3       1 <0>        -0.1167
     18 C16         0.3735    1.7265    8.7788 C.2       1 <0>         0.5824
     19 O2          0.0272    1.0700    9.7419 O.2       1 <0>        -0.5164
     20 N2          0.7232    3.0188    8.9345 N.am      1 <0>        -0.5573
     21 C17         0.8180    3.6232   10.2737 C.3       1 <0>         0.1215
     22 C18        -0.4606    4.3528   10.6118 C.3       1 <0>        -0.1348
     23 C19        -0.7456    5.5387    9.7013 C.3       1 <0>        -0.1085
     24 C20        -1.1128    5.0786    8.2941 C.3       1 <0>         0.1510
     25 H1         -1.7268    5.8387    7.8110 H         1 <0>         0.0701
     26 C21         0.1590    4.8674    7.4906 C.ar      1 <0>        -0.1299
     27 C22         1.0126    3.8254    7.8296 C.ar      1 <0>         0.1624
     28 C23         2.1569    3.5918    7.0763 C.ar      1 <0>        -0.1037
     29 C24         2.4543    4.4161    6.0082 C.ar      1 <0>        -0.0864
     30 C25         1.6192    5.4719    5.6880 C.ar      1 <0>        -0.0344
     31 C26         0.4564    5.6995    6.4333 C.ar      1 <0>        -0.0870
     32 Cl1         2.0117    6.5159    4.3577 Cl        1 <0>        -0.0606
     33 O3         -1.8418    3.8518    8.3678 O.3       1 <0>        -0.5438
     34 H2          2.1453    1.9447    0.4245 H         1 <0>         0.0755
     35 H3          0.8069    2.3063   -0.6919 H         1 <0>         0.0608
     36 H4          0.5003    2.1924    1.0577 H         1 <0>         0.1029
     37 H5          0.9190    0.3514   -2.0476 H         1 <0>         0.1318
     38 H6          0.4652   -2.0542   -2.2875 H         1 <0>         0.1299
     39 H7          0.0951   -3.4509   -0.2963 H         1 <0>         0.1309
     40 H8          0.1766   -2.4478    1.9477 H         1 <0>         0.1253
     41 H9          0.4423   -1.5979    3.5663 H         1 <0>         0.4118
     42 H10        -0.4364    1.7591    4.2305 H         1 <0>         0.1421
     43 H11        -0.5015    2.7925    6.4579 H         1 <0>         0.1270
     44 H12         1.3841   -1.7390    5.8955 H         1 <0>         0.1327
     45 H13         0.6976   -1.5476    8.8865 H         1 <0>         0.0822
     46 H14         2.3173   -1.5534    8.1483 H         1 <0>         0.0672
     47 H15         1.8304   -0.2146    9.2154 H         1 <0>         0.0713
     48 H16         0.9923    2.8399   11.0115 H         1 <0>         0.0931
     49 H17         1.6508    4.3262   10.2941 H         1 <0>         0.0748
     50 H18        -1.2916    3.6510   10.5406 H         1 <0>         0.0846
     51 H19        -0.3969    4.7099   11.6396 H         1 <0>         0.0735
     52 H20        -1.5721    6.1163   10.1152 H         1 <0>         0.0765
     53 H21         0.1407    6.1711    9.6504 H         1 <0>         0.0745
     54 H22         2.8113    2.7694    7.3251 H         1 <0>         0.1349
     55 H23         3.3425    4.2359    5.4209 H         1 <0>         0.1385
     56 H24        -0.2003    6.5210    6.1876 H         1 <0>         0.1412
     57 H25        -2.1083    3.5003    7.5073 H         1 <0>         0.3729
@<TRIPOS>BOND
     1    1    2 1
     2    1   34 1
     3    1   35 1
     4    1   36 1
     5    2    7 ar
     6    2    3 ar
     7    3    4 ar
     8    3   37 1
     9    4    5 ar
    10    4   38 1
    11    5    6 ar
    12    5   39 1
    13    6    7 ar
    14    6   40 1
    15    7    8 1
    16    8    9 2
    17    8   10 am
    18   10   11 1
    19   10   41 1
    20   11   16 ar
    21   11   12 ar
    22   12   13 ar
    23   12   42 1
    24   13   14 ar
    25   13   43 1
    26   14   15 ar
    27   14   18 1
    28   15   16 ar
    29   15   17 1
    30   16   44 1
    31   17   45 1
    32   17   46 1
    33   17   47 1
    34   18   19 2
    35   18   20 am
    36   20   27 1
    37   20   21 1
    38   21   22 1
    39   21   48 1
    40   21   49 1
    41   22   23 1
    42   22   50 1
    43   22   51 1
    44   23   24 1
    45   23   52 1
    46   23   53 1
    47   24   25 1
    48   24   26 1
    49   24   33 1
    50   26   31 ar
    51   26   27 ar
    52   27   28 ar
    53   28   29 ar
    54   28   54 1
    55   29   30 ar
    56   29   55 1
    57   30   31 ar
    58   30   32 1
    59   31   56 1
    60   33   57 1
@<TRIPOS>MOLECULE
ZINC03931527
   68    72     0     0     0
SMALL
USER_CHARGES

@<TRIPOS>ATOM
      1 C1          1.2218   -0.4724    2.9458 C.3       1 <0>         0.0198
      2 O1          1.9409   -1.7073    2.9428 O.3       1 <0>        -0.2973
      3 C2          2.0671   -2.3454    1.7485 C.ar      1 <0>         0.1633
      4 C3          1.5160   -1.7920    0.6040 C.ar      1 <0>        -0.1941
      5 C4          1.6457   -2.4417   -0.6094 C.ar      1 <0>        -0.0074
      6 C5          2.3242   -3.6439   -0.6842 C.ar      1 <0>        -0.6830
      7 C6          2.8760   -4.2017    0.4540 C.ar      1 <0>        -0.0756
      8 C7          2.7550   -3.5526    1.6722 C.ar      1 <0>         0.0851
      9 O2          3.3024   -4.0970    2.7918 O.3       1 <0>        -0.3009
     10 C8          3.9941   -5.3380    2.6382 C.3       1 <0>         0.0196
     11 S1          2.4854   -4.4673   -2.2336 S.o2      1 <0>         2.6798
     12 O3          2.6922   -5.8428   -1.9429 O.2       1 <0>        -0.8908
     13 O4          1.4131   -4.0137   -3.0481 O.2       1 <0>        -0.9327
     14 N1          3.8799   -3.9175   -2.9375 N.pl3     1 <0>        -0.9151
     15 C9          3.9669   -2.8077   -3.7807 C.ar      1 <0>         0.1879
     16 C10         2.9589   -1.9417   -4.2103 C.ar      1 <0>        -0.1405
     17 C11         3.2562   -0.8921   -5.0528 C.ar      1 <0>        -0.0605
     18 C12         4.5568   -0.6887   -5.4800 C.ar      1 <0>        -0.0605
     19 C13         5.5603   -1.5424   -5.0586 C.ar      1 <0>        -0.0468
     20 C14         5.2662   -2.5954   -4.2136 C.ar      1 <0>        -0.1506
     21 C15         6.1543   -3.6603   -3.6102 C.3       1 <0>         0.2438
     22 C16         5.2037   -4.5206   -2.7615 C.3       1 <0>         0.1494
     23 H1          5.4971   -4.4892   -1.7122 H         1 <0>         0.1215
     24 C17         5.2016   -5.9418   -3.2627 C.2       1 <0>         0.5471
     25 O5          4.5410   -6.2410   -4.2348 O.2       1 <0>        -0.4970
     26 N2          5.9337   -6.8803   -2.6305 N.am      1 <0>        -0.5873
     27 C18         6.7731   -6.6571   -1.4393 C.3       1 <0>         0.0850
     28 C19         6.8762   -8.0459   -0.7609 C.3       1 <0>        -0.1334
     29 C20         6.9518   -8.9886   -1.9909 C.3       1 <0>        -0.1235
     30 C21         6.0225   -8.2977   -3.0109 C.3       1 <0>         0.1233
     31 H2          6.4430   -8.3871   -4.0125 H         1 <0>         0.0996
     32 C22         4.6535   -8.9264   -2.9687 C.2       1 <0>         0.4930
     33 O6          3.6902   -8.2611   -2.6521 O.2       1 <0>        -0.4803
     34 N3          4.4998  -10.2280   -3.2828 N.am      1 <0>        -0.8617
     35 C23         6.7938   -4.4882   -4.6949 C.ar      1 <0>        -0.1310
     36 C24         6.1215   -4.7106   -5.8820 C.ar      1 <0>        -0.0523
     37 C25         6.7080   -5.4699   -6.8770 C.ar      1 <0>        -0.1138
     38 C26         7.9674   -6.0074   -6.6855 C.ar      1 <0>        -0.0924
     39 C27         8.6405   -5.7858   -5.4992 C.ar      1 <0>        -0.1183
     40 C28         8.0563   -5.0210   -4.5050 C.ar      1 <0>        -0.0158
     41 Cl1         8.9040   -4.7365   -3.0170 Cl        1 <0>        -0.0437
     42 O7          7.1541   -3.0646   -2.7810 O.3       1 <0>        -0.5256
     43 Cl2         4.9276    0.6335   -6.5420 Cl        1 <0>        -0.0598
     44 H3          1.7179    0.2385    2.2849 H         1 <0>         0.0613
     45 H4          0.2037   -0.6439    2.5964 H         1 <0>         0.0613
     46 H5          1.1954   -0.0697    3.9584 H         1 <0>         0.1077
     47 H6          0.9849   -0.8533    0.6598 H         1 <0>         0.1496
     48 H7          1.2157   -2.0093   -1.5007 H         1 <0>         0.1451
     49 H8          3.4052   -5.1412    0.3929 H         1 <0>         0.1502
     50 H9          4.3808   -5.6604    3.6050 H         1 <0>         0.1074
     51 H10         3.3074   -6.0912    2.2520 H         1 <0>         0.0599
     52 H11         4.8216   -5.2088    1.9407 H         1 <0>         0.0564
     53 H12         1.9418   -2.0954   -3.8812 H         1 <0>         0.1555
     54 H13         2.4716   -0.2265   -5.3810 H         1 <0>         0.1470
     55 H14         6.5759   -1.3857   -5.3910 H         1 <0>         0.1376
     56 H15         7.7616   -6.3038   -1.7326 H         1 <0>         0.0880
     57 H16         6.2972   -5.9417   -0.7686 H         1 <0>         0.0741
     58 H17         7.7801   -8.1192   -0.1563 H         1 <0>         0.0922
     59 H18         5.9896   -8.2551   -0.1623 H         1 <0>         0.0803
     60 H19         7.9720   -9.0462   -2.3705 H         1 <0>         0.0911
     61 H20         6.5759   -9.9805   -1.7403 H         1 <0>         0.0889
     62 H21         5.2703  -10.7601   -3.5360 H         1 <0>         0.3965
     63 H22         3.6187  -10.6327   -3.2557 H         1 <0>         0.4021
     64 H23         5.1376   -4.2913   -6.0320 H         1 <0>         0.1324
     65 H24         6.1821   -5.6437   -7.8042 H         1 <0>         0.1313
     66 H25         8.4250   -6.6009   -7.4632 H         1 <0>         0.1336
     67 H26         9.6241   -6.2059   -5.3496 H         1 <0>         0.1357
     68 H27         7.7937   -2.5231   -3.2634 H         1 <0>         0.3879
@<TRIPOS>BOND
     1    1    2 1
     2    1   44 1
     3    1   45 1
     4    1   46 1
     5    2    3 1
     6    3    8 ar
     7    3    4 ar
     8    4    5 ar
     9    4   47 1
    10    5    6 ar
    11    5   48 1
    12    6    7 ar
    13    6   11 1
    14    7    8 ar
    15    7   49 1
    16    8    9 1
    17    9   10 1
    18   10   50 1
    19   10   51 1
    20   10   52 1
    21   11   12 2
    22   11   13 2
    23   11   14 1
    24   14   22 1
    25   14   15 1
    26   15   20 ar
    27   15   16 ar
    28   16   17 ar
    29   16   53 1
    30   17   18 ar
    31   17   54 1
    32   18   19 ar
    33   18   43 1
    34   19   20 ar
    35   19   55 1
    36   20   21 1
    37   21   22 1
    38   21   35 1
    39   21   42 1
    40   22   23 1
    41   22   24 1
    42   24   25 2
    43   24   26 am
    44   26   30 1
    45   26   27 1
    46   27   28 1
    47   27   56 1
    48   27   57 1
    49   28   29 1
    50   28   58 1
    51   28   59 1
    52   29   30 1
    53   29   60 1
    54   29   61 1
    55   30   31 1
    56   30   32 1
    57   32   33 2
    58   32   34 am
    59   34   62 1
    60   34   63 1
    61   35   40 ar
    62   35   36 ar
    63   36   37 ar
    64   36   64 1
    65   37   38 ar
    66   37   65 1
    67   38   39 ar
    68   38   66 1
    69   39   40 ar
    70   39   67 1
    71   40   41 1
    72   42   68 1
@<TRIPOS>MOLECULE
ZINC03804565
   62    65     0     0     0
SMALL
USER_CHARGES
N-[4-[(2-dimethylamino-6-azabicyclo[5.4.0]undeca-7,9,11-trien-6-yl)carbonyl]phenyl]-2-methyl-benzamide
@<TRIPOS>ATOM
      1 C1         13.0155    2.6092    3.0163 C.3       1 <0>        -0.1295
      2 C2         13.1960    3.6861    1.9777 C.ar      1 <0>        -0.0152
      3 C3         14.1618    4.6565    2.1486 C.ar      1 <0>        -0.1304
      4 C4         14.3294    5.6454    1.1958 C.ar      1 <0>        -0.0782
      5 C5         13.5308    5.6686    0.0658 C.ar      1 <0>        -0.1327
      6 C6         12.5645    4.7019   -0.1194 C.ar      1 <0>        -0.0800
      7 C7         12.3868    3.7040    0.8406 C.ar      1 <0>        -0.1538
      8 C8         11.3505    2.6673    0.6507 C.2       1 <0>         0.5670
      9 O1         11.1940    1.8033    1.4912 O.2       1 <0>        -0.5073
     10 N1         10.5753    2.6834   -0.4517 N.am      1 <0>        -0.6731
     11 C9          9.6535    1.6614   -0.6703 C.ar      1 <0>         0.1893
     12 C10         9.9414    0.3657   -0.2522 C.ar      1 <0>        -0.1303
     13 C11         9.0306   -0.6450   -0.4615 C.ar      1 <0>        -0.1237
     14 C12         7.8203   -0.3708   -1.1045 C.ar      1 <0>        -0.1643
     15 C13         7.5367    0.9305   -1.5282 C.ar      1 <0>        -0.0308
     16 C14         8.4496    1.9377   -1.3112 C.ar      1 <0>        -0.1521
     17 C15         6.8442   -1.4530   -1.3360 C.2       1 <0>         0.5691
     18 O2          5.6672   -1.1880   -1.4873 O.2       1 <0>        -0.5061
     19 N2          7.2574   -2.7351   -1.3797 N.am      1 <0>        -0.5685
     20 C16         8.6242   -3.0818   -0.9792 C.3       1 <0>         0.0622
     21 C17         8.6331   -3.2686    0.5396 C.3       1 <0>        -0.1611
     22 C18         7.2536   -3.8152    0.9508 C.3       1 <0>        -0.1370
     23 C19         6.9896   -5.1343    0.2257 C.3       1 <0>         0.0901
     24 H1          7.9408   -5.6219    0.0123 H         1 <0>         0.1424
     25 C20         6.2512   -4.9022   -1.0678 C.ar      1 <0>        -0.1551
     26 C21         6.3843   -3.7380   -1.8005 C.ar      1 <0>         0.1924
     27 C22         5.6591   -3.5616   -2.9770 C.ar      1 <0>        -0.1001
     28 C23         4.8109   -4.5570   -3.4200 C.ar      1 <0>        -0.0759
     29 C24         4.6885   -5.7279   -2.6949 C.ar      1 <0>        -0.1072
     30 C25         5.4030   -5.8993   -1.5259 C.ar      1 <0>        -0.1215
     31 C26         6.9758   -6.5014    2.2241 C.3       1 <0>        -0.0460
     32 C27         4.9738   -5.3153    1.5548 C.3       1 <0>        -0.0497
     33 H2         13.5598    1.7154    2.7113 H         1 <0>         0.0754
     34 H3         13.4002    2.9598    3.9740 H         1 <0>         0.0625
     35 H4         11.9559    2.3733    3.1148 H         1 <0>         0.0992
     36 H5         14.7886    4.6439    3.0280 H         1 <0>         0.1337
     37 H6         15.0871    6.4024    1.3342 H         1 <0>         0.1324
     38 H7         13.6670    6.4431   -0.6744 H         1 <0>         0.1329
     39 H8         11.9446    4.7188   -1.0037 H         1 <0>         0.1251
     40 H9         10.6590    3.4064   -1.0929 H         1 <0>         0.4152
     41 H10        10.8787    0.1537    0.2407 H         1 <0>         0.1455
     42 H11         9.2526   -1.6495   -0.1325 H         1 <0>         0.1785
     43 H12         6.6025    1.1456   -2.0257 H         1 <0>         0.1404
     44 H13         8.2311    2.9435   -1.6383 H         1 <0>         0.1385
     45 H14         8.9281   -4.0080   -1.4669 H         1 <0>         0.0948
     46 H15         9.3053   -2.2771   -1.2562 H         1 <0>         0.1329
     47 H16         9.4108   -3.9791    0.8201 H         1 <0>         0.0983
     48 H17         8.8122   -2.3112    1.0288 H         1 <0>         0.1090
     49 H18         7.2357   -3.9828    2.0276 H         1 <0>         0.0919
     50 H19         6.4824   -3.0930    0.6830 H         1 <0>         0.0984
     51 H20         5.7579   -2.6461   -3.5412 H         1 <0>         0.1380
     52 H21         4.2449   -4.4214   -4.3298 H         1 <0>         0.1418
     53 H22         4.0315   -6.5109   -3.0438 H         1 <0>         0.1387
     54 H23         5.3010   -6.8163   -0.9645 H         1 <0>         0.1185
     55 H24         7.2372   -5.6677    2.8758 H         1 <0>         0.1246
     56 H25         6.3916   -7.2313    2.7845 H         1 <0>         0.1260
     57 H26         7.8863   -6.9722    1.8534 H         1 <0>         0.1230
     58 H27         4.3312   -5.0950    0.7024 H         1 <0>         0.1224
     59 H28         4.4384   -5.9529    2.2583 H         1 <0>         0.1251
     60 H29         5.2541   -4.3848    2.0485 H         1 <0>         0.1245
     61 N3          6.1755   -6.0295    1.0745 N.4       1 <0>        -0.3972
     62 H30         5.8812   -6.8404    0.5177 H         1 <0>         0.4273
@<TRIPOS>BOND
     1    1    2 1
     2    1   33 1
     3    1   34 1
     4    1   35 1
     5    2    7 ar
     6    2    3 ar
     7    3    4 ar
     8    3   36 1
     9    4    5 ar
    10    4   37 1
    11    5    6 ar
    12    5   38 1
    13    6    7 ar
    14    6   39 1
    15    7    8 1
    16    8    9 2
    17    8   10 am
    18   10   11 1
    19   10   40 1
    20   11   16 ar
    21   11   12 ar
    22   12   13 ar
    23   12   41 1
    24   13   14 ar
    25   13   42 1
    26   14   15 ar
    27   14   17 1
    28   15   16 ar
    29   15   43 1
    30   16   44 1
    31   17   18 2
    32   17   19 am
    33   19   26 1
    34   19   20 1
    35   20   21 1
    36   20   45 1
    37   20   46 1
    38   21   22 1
    39   21   47 1
    40   21   48 1
    41   22   23 1
    42   22   49 1
    43   22   50 1
    44   23   24 1
    45   23   25 1
    46   23   61 1
    47   25   30 ar
    48   25   26 ar
    49   26   27 ar
    50   27   28 ar
    51   27   51 1
    52   28   29 ar
    53   28   52 1
    54   29   30 ar
    55   29   53 1
    56   30   54 1
    57   31   55 1
    58   31   56 1
    59   31   57 1
    60   31   61 1
    61   32   58 1
    62   32   59 1
    63   32   60 1
    64   32   61 1
    65   61   62 1
@<TRIPOS>MOLECULE
ZINC06071859
   62    65     0     0     0
SMALL
USER_CHARGES
N-[4-[(2-dimethylamino-6-azabicyclo[5.4.0]undeca-7,9,11-trien-6-yl)carbonyl]phenyl]-2-methyl-benzamide
@<TRIPOS>ATOM
      1 C1          7.9033    4.3738   -5.9848 C.3       1 <0>        -0.1316
      2 C2          6.5430    4.7768   -6.4929 C.ar      1 <0>        -0.0129
      3 C3          6.4005    5.9158   -7.2586 C.ar      1 <0>        -0.1294
      4 C4          5.1525    6.2869   -7.7263 C.ar      1 <0>        -0.0782
      5 C5          4.0396    5.5195   -7.4305 C.ar      1 <0>        -0.1342
      6 C6          4.1688    4.3759   -6.6701 C.ar      1 <0>        -0.0809
      7 C7          5.4245    3.9986   -6.1905 C.ar      1 <0>        -0.1534
      8 C8          5.5698    2.7769   -5.3713 C.2       1 <0>         0.5648
      9 O1          6.6569    2.4737   -4.9198 O.2       1 <0>        -0.5011
     10 N1          4.4969    1.9993   -5.1249 N.am      1 <0>        -0.6734
     11 C9          4.6109    0.9059   -4.2685 C.ar      1 <0>         0.1907
     12 C10         5.7996    0.1842   -4.2184 C.ar      1 <0>        -0.1308
     13 C11         5.9155   -0.8964   -3.3735 C.ar      1 <0>        -0.0286
     14 C12         4.8375   -1.2685   -2.5654 C.ar      1 <0>        -0.1739
     15 C13         3.6431   -0.5447   -2.6221 C.ar      1 <0>        -0.0741
     16 C14         3.5355    0.5378   -3.4656 C.ar      1 <0>        -0.1588
     17 C15         4.9580   -2.4266   -1.6590 C.2       1 <0>         0.5677
     18 O2          5.7925   -3.2840   -1.8757 O.2       1 <0>        -0.4966
     19 N2          4.1430   -2.5340   -0.5909 N.am      1 <0>        -0.5712
     20 C16         4.1761   -3.7412    0.2401 C.3       1 <0>         0.1037
     21 C17         3.2530   -4.7761   -0.4071 C.3       1 <0>        -0.1373
     22 C18         2.1083   -4.0135   -1.0989 C.3       1 <0>        -0.1372
     23 C19         1.3653   -3.1662   -0.0667 C.3       1 <0>         0.0892
     24 H1          1.4525   -3.6373    0.9124 H         1 <0>         0.1433
     25 C20         1.9355   -1.7726    0.0025 C.ar      1 <0>        -0.1623
     26 C21         3.2658   -1.4970   -0.2737 C.ar      1 <0>         0.1866
     27 C22         3.7343   -0.1897   -0.2289 C.ar      1 <0>        -0.1068
     28 C23         2.8770    0.8410    0.1019 C.ar      1 <0>        -0.0768
     29 C24         1.5523    0.5672    0.3885 C.ar      1 <0>        -0.1044
     30 C25         1.0845   -0.7311    0.3395 C.ar      1 <0>        -0.1201
     31 C26        -0.2098   -2.6528   -1.8324 C.3       1 <0>        -0.0500
     32 C27        -0.7290   -4.3728   -0.2093 C.3       1 <0>        -0.0463
     33 H2          8.3266    3.6146   -6.6425 H         1 <0>         0.0772
     34 H3          8.5576    5.2454   -5.9675 H         1 <0>         0.0637
     35 H4          7.8095    3.9699   -4.9767 H         1 <0>         0.0998
     36 H5          7.2651    6.5187   -7.4936 H         1 <0>         0.1344
     37 H6          5.0464    7.1793   -8.3252 H         1 <0>         0.1324
     38 H7          3.0682    5.8146   -7.7989 H         1 <0>         0.1320
     39 H8          3.3000    3.7759   -6.4431 H         1 <0>         0.1234
     40 H9          3.6455    2.2007   -5.5436 H         1 <0>         0.4137
     41 H10         6.6321    0.4720   -4.8433 H         1 <0>         0.1540
     42 H11         6.8383   -1.4563   -3.3353 H         1 <0>         0.1412
     43 H12         2.8068   -0.8323   -2.0023 H         1 <0>         0.1358
     44 H13         2.6142    1.0998   -3.5071 H         1 <0>         0.1320
     45 H14         5.1931   -4.1306    0.2860 H         1 <0>         0.1062
     46 H15         3.8231   -3.5082    1.2447 H         1 <0>         0.0897
     47 H16         3.8081   -5.3571   -1.1436 H         1 <0>         0.0947
     48 H17         2.8477   -5.4391    0.3572 H         1 <0>         0.0898
     49 H18         2.5190   -3.3656   -1.8732 H         1 <0>         0.0942
     50 H19         1.4174   -4.7258   -1.5498 H         1 <0>         0.0897
     51 H20         4.7696    0.0206   -0.4533 H         1 <0>         0.1418
     52 H21         3.2398    1.8576    0.1362 H         1 <0>         0.1427
     53 H22         0.8802    1.3720    0.6472 H         1 <0>         0.1400
     54 H23         0.0485   -0.9366    0.5650 H         1 <0>         0.1203
     55 H24         0.1998   -3.4122   -2.4984 H         1 <0>         0.1252
     56 H25        -1.2678   -2.5094   -2.0520 H         1 <0>         0.1252
     57 H26         0.3227   -1.7134   -1.9813 H         1 <0>         0.1207
     58 H27        -0.6579   -4.6377    0.8456 H         1 <0>         0.1234
     59 H28        -1.7781   -4.2874   -0.4926 H         1 <0>         0.1264
     60 H29        -0.2520   -5.1464   -0.8111 H         1 <0>         0.1249
     61 N3         -0.0662   -3.0688   -0.4214 N.4       1 <0>        -0.3974
     62 H30        -0.5119   -2.3664    0.1804 H         1 <0>         0.4271
@<TRIPOS>BOND
     1    1    2 1
     2    1   33 1
     3    1   34 1
     4    1   35 1
     5    2    7 ar
     6    2    3 ar
     7    3    4 ar
     8    3   36 1
     9    4    5 ar
    10    4   37 1
    11    5    6 ar
    12    5   38 1
    13    6    7 ar
    14    6   39 1
    15    7    8 1
    16    8    9 2
    17    8   10 am
    18   10   11 1
    19   10   40 1
    20   11   16 ar
    21   11   12 ar
    22   12   13 ar
    23   12   41 1
    24   13   14 ar
    25   13   42 1
    26   14   15 ar
    27   14   17 1
    28   15   16 ar
    29   15   43 1
    30   16   44 1
    31   17   18 2
    32   17   19 am
    33   19   26 1
    34   19   20 1
    35   20   21 1
    36   20   45 1
    37   20   46 1
    38   21   22 1
    39   21   47 1
    40   21   48 1
    41   22   23 1
    42   22   49 1
    43   22   50 1
    44   23   24 1
    45   23   25 1
    46   23   61 1
    47   25   30 ar
    48   25   26 ar
    49   26   27 ar
    50   27   28 ar
    51   27   51 1
    52   28   29 ar
    53   28   52 1
    54   29   30 ar
    55   29   53 1
    56   30   54 1
    57   31   55 1
    58   31   56 1
    59   31   57 1
    60   31   61 1
    61   32   58 1
    62   32   59 1
    63   32   60 1
    64   32   61 1
    65   61   62 1
@<TRIPOS>MOLECULE
ZINC40849222
   58    61     0     0     0
SMALL
USER_CHARGES

@<TRIPOS>ATOM
      1 C1          0.7442    0.1383    0.0777 C.3       1 <0>        -0.1217
      2 C2          0.8801   -1.3367    0.3546 C.ar      1 <0>        -0.0669
      3 C3          1.0635   -2.2221   -0.6885 C.ar      1 <0>        -0.1169
      4 C4          1.1889   -3.5760   -0.4357 C.ar      1 <0>        -0.1089
      5 C5          1.1314   -4.0508    0.8624 C.ar      1 <0>        -0.1237
      6 C6          0.9479   -3.1746    1.9127 C.ar      1 <0>        -0.1010
      7 C7          0.8267   -1.8088    1.6643 C.ar      1 <0>        -0.0526
      8 C8          0.6354   -0.8612    2.7902 C.ar      1 <0>        -0.0878
      9 C9         -0.3427   -1.0987    3.7598 C.ar      1 <0>        -0.0641
     10 C10        -0.4815   -0.1847    4.7899 C.ar      1 <0>        -0.1656
     11 C11         0.3445    0.9241    4.8264 C.ar      1 <0>         0.1045
     12 N1          1.2586    1.1217    3.8965 N.ar      1 <0>        -0.4545
     13 C12         1.4316    0.2764    2.9009 C.ar      1 <0>         0.1185
     14 C13         0.1973    1.9222    5.9459 C.3       1 <0>         0.1571
     15 N2          1.1526    1.6061    7.0107 N.pl3     1 <0>        -0.9284
     16 C14         2.4662    2.0841    6.9371 C.ar      1 <0>         0.0664
     17 C15         3.5408    1.1966    6.9263 C.ar      1 <0>        -0.0426
     18 C16         4.8216    1.7141    6.8520 C.ar      1 <0>        -0.1681
     19 C17         4.9933    3.0910    6.7912 C.ar      1 <0>         0.3209
     20 N3          3.9511    3.9041    6.8040 N.ar      1 <0>        -0.5245
     21 C18         2.7149    3.4467    6.8682 C.ar      1 <0>         0.1539
     22 O1          6.2466    3.6081    6.7182 O.3       1 <0>        -0.3068
     23 C19         6.3587    5.0315    6.6581 C.3       1 <0>         0.0393
     24 S1          0.6784    0.6832    8.3013 S.o2      1 <0>         2.7151
     25 O2          1.4633    1.1012    9.4097 O.2       1 <0>        -0.9239
     26 O3         -0.7422    0.7109    8.3202 O.2       1 <0>        -0.9458
     27 C20         1.1451   -0.9796    7.9522 C.2       1 <0>        -0.5619
     28 C21         0.3919   -1.8956    7.3141 C.2       1 <0>         0.0725
     29 N4          1.1319   -3.0457    7.2558 N.pl3     1 <0>        -0.4479
     30 C22         2.3123   -2.7923    7.8608 C.2       1 <0>         0.2150
     31 N5          2.3150   -1.5532    8.2704 N.2       1 <0>        -0.4108
     32 C23         3.4416   -3.7757    8.0298 C.3       1 <0>        -0.0729
     33 C24         0.7201   -4.3145    6.6502 C.3       1 <0>         0.0615
     34 H1          1.7301    0.6030    0.0918 H         1 <0>         0.0750
     35 H2          0.2880    0.2837   -0.9015 H         1 <0>         0.0704
     36 H3          0.1162    0.5952    0.8426 H         1 <0>         0.0681
     37 H4          1.1088   -1.8568   -1.7038 H         1 <0>         0.1266
     38 H5          1.3319   -4.2652   -1.2548 H         1 <0>         0.1251
     39 H6          1.2299   -5.1090    1.0542 H         1 <0>         0.1245
     40 H7          0.9029   -3.5464    2.9257 H         1 <0>         0.1181
     41 H8         -0.9745   -1.9730    3.7065 H         1 <0>         0.1360
     42 H9         -1.2270   -0.3354    5.5567 H         1 <0>         0.1404
     43 H10         2.1943    0.4699    2.1610 H         1 <0>         0.1575
     44 H11         0.3945    2.9250    5.5668 H         1 <0>         0.1119
     45 H12        -0.8170    1.8765    6.3424 H         1 <0>         0.1216
     46 H13         3.3775    0.1301    6.9750 H         1 <0>         0.1452
     47 H14         5.6775    1.0556    6.8419 H         1 <0>         0.1456
     48 H15         1.8879    4.1413    6.8716 H         1 <0>         0.1640
     49 H16         7.4108    5.3111    6.6028 H         1 <0>         0.0964
     50 H17         5.8379    5.3999    5.7743 H         1 <0>         0.0596
     51 H18         5.9129    5.4691    7.5513 H         1 <0>         0.0605
     52 H19        -0.6046   -1.7507    6.9237 H         1 <0>         0.1902
     53 H20         4.1102   -3.7122    7.1713 H         1 <0>         0.0861
     54 H21         3.9947   -3.5410    8.9393 H         1 <0>         0.0977
     55 H22         3.0367   -4.7852    8.1011 H         1 <0>         0.0776
     56 H23         1.0148   -4.3288    5.6009 H         1 <0>         0.0847
     57 H24         1.2016   -5.1403    7.1741 H         1 <0>         0.0962
     58 H25        -0.3623   -4.4185    6.7251 H         1 <0>         0.0939
@<TRIPOS>BOND
     1    1    2 1
     2    1   34 1
     3    1   35 1
     4    1   36 1
     5    2    7 ar
     6    2    3 ar
     7    3    4 ar
     8    3   37 1
     9    4    5 ar
    10    4   38 1
    11    5    6 ar
    12    5   39 1
    13    6    7 ar
    14    6   40 1
    15    7    8 1
    16    8   13 ar
    17    8    9 ar
    18    9   10 ar
    19    9   41 1
    20   10   11 ar
    21   10   42 1
    22   11   12 ar
    23   11   14 1
    24   12   13 ar
    25   13   43 1
    26   14   15 1
    27   14   44 1
    28   14   45 1
    29   15   16 1
    30   15   24 1
    31   16   21 ar
    32   16   17 ar
    33   17   18 ar
    34   17   46 1
    35   18   19 ar
    36   18   47 1
    37   19   20 ar
    38   19   22 1
    39   20   21 ar
    40   21   48 1
    41   22   23 1
    42   23   49 1
    43   23   50 1
    44   23   51 1
    45   24   25 2
    46   24   26 2
    47   24   27 1
    48   27   31 1
    49   27   28 2
    50   28   29 1
    51   28   52 1
    52   29   30 1
    53   29   33 1
    54   30   31 2
    55   30   32 1
    56   32   53 1
    57   32   54 1
    58   32   55 1
    59   33   56 1
    60   33   57 1
    61   33   58 1
@<TRIPOS>MOLECULE
ZINC00600399
   55    59     0     0     0
SMALL
USER_CHARGES
N-(3-chloro-4-BLAHylcarbonyl-phenyl)-5-fluoro-2-methyl-benzamide
@<TRIPOS>ATOM
      1 C1          1.5555    0.8403    2.5692 C.3       1 <0>        -0.1239
      2 C2          1.8904    1.9652    1.6240 C.ar      1 <0>        -0.0252
      3 C3          2.9911    2.7626    1.8613 C.ar      1 <0>        -0.0994
      4 C4          3.3012    3.7953    0.9953 C.ar      1 <0>        -0.1158
      5 C5          2.5094    4.0363   -0.1165 C.ar      1 <0>         0.0883
      6 C6          1.4076    3.2415   -0.3678 C.ar      1 <0>        -0.1171
      7 C7          1.0878    2.2016    0.5068 C.ar      1 <0>        -0.1188
      8 C8         -0.0927    1.3506    0.2477 C.2       1 <0>         0.5656
      9 O1         -0.2939    0.3659    0.9314 O.2       1 <0>        -0.4971
     10 N1         -0.9429    1.6634   -0.7503 N.am      1 <0>        -0.6689
     11 C9         -2.1025    0.9138   -0.9383 C.ar      1 <0>         0.1847
     12 C10        -2.0850   -0.4602   -0.7144 C.ar      1 <0>        -0.1168
     13 C11        -3.2292   -1.2033   -0.8933 C.ar      1 <0>        -0.0502
     14 C12        -4.4083   -0.5792   -1.3117 C.ar      1 <0>        -0.1371
     15 C13        -4.4216    0.8006   -1.5414 C.ar      1 <0>         0.0287
     16 C14        -3.2728    1.5392   -1.3545 C.ar      1 <0>        -0.1421
     17 Cl1        -5.8822    1.5814   -2.0616 Cl        1 <0>        -0.0366
     18 C15        -5.6351   -1.3735   -1.5099 C.2       1 <0>         0.5672
     19 O2         -6.2818   -1.2486   -2.5320 O.2       1 <0>        -0.4952
     20 N2         -6.0393   -2.2379   -0.5580 N.am      1 <0>        -0.5631
     21 C16        -7.1888   -3.0899   -0.8094 C.3       1 <0>         0.1840
     22 C17        -6.7974   -4.5506   -0.8257 C.2       1 <0>         0.0092
     23 C18        -7.6481   -5.5326   -1.2184 C.2       1 <0>        -0.1974
     24 C19        -6.9821   -6.7592   -1.0543 C.2       1 <0>        -0.1838
     25 C20        -5.7547   -6.4858   -0.5799 C.2       1 <0>        -0.0265
     26 N3         -5.6271   -5.1210   -0.4542 N.pl3     1 <0>        -0.4333
     27 C21        -4.3851   -4.4990   -0.0007 C.3       1 <0>         0.1483
     28 C22        -4.6186   -3.4101    1.0089 C.ar      1 <0>        -0.1166
     29 C23        -5.3530   -2.2945    0.6485 C.ar      1 <0>         0.1481
     30 C24        -5.4182   -1.2098    1.5210 C.ar      1 <0>        -0.1138
     31 C25        -4.8011   -1.2765    2.7534 C.ar      1 <0>        -0.0928
     32 C26        -4.1208   -2.4199    3.1299 C.ar      1 <0>        -0.1096
     33 C27        -4.0309   -3.4885    2.2561 C.ar      1 <0>        -0.0861
     34 F1          2.8182    5.0469   -0.9582 F         1 <0>        -0.1331
     35 H1          1.9599   -0.0940    2.1799 H         1 <0>         0.0809
     36 H2          1.9914    1.0454    3.5470 H         1 <0>         0.0643
     37 H3          0.4729    0.7559    2.6645 H         1 <0>         0.0960
     38 H4          3.6125    2.5795    2.7255 H         1 <0>         0.1445
     39 H5          4.1639    4.4164    1.1859 H         1 <0>         0.1445
     40 H6          0.7933    3.4265   -1.2366 H         1 <0>         0.1391
     41 H7         -0.7476    2.4102   -1.3376 H         1 <0>         0.4149
     42 H8         -1.1730   -0.9429   -0.3958 H         1 <0>         0.1521
     43 H9         -3.2153   -2.2684   -0.7150 H         1 <0>         0.1350
     44 H10        -3.2814    2.6045   -1.5319 H         1 <0>         0.1459
     45 H11        -7.9307   -2.9262   -0.0279 H         1 <0>         0.0904
     46 H12        -7.6242   -2.8250   -1.7729 H         1 <0>         0.1204
     47 H13        -8.6533   -5.3962   -1.5891 H         1 <0>         0.1384
     48 H14        -7.3821   -7.7391   -1.2692 H         1 <0>         0.1383
     49 H15        -4.9956   -7.2148   -0.3378 H         1 <0>         0.1622
     50 H16        -3.8682   -4.0758   -0.8619 H         1 <0>         0.0831
     51 H17        -3.7525   -5.2651    0.4476 H         1 <0>         0.1037
     52 H18        -5.9517   -0.3163    1.2323 H         1 <0>         0.1268
     53 H19        -4.8497   -0.4329    3.4261 H         1 <0>         0.1307
     54 H20        -3.6605   -2.4787    4.1052 H         1 <0>         0.1321
     55 H21        -3.5012   -4.3830    2.5488 H         1 <0>         0.1327
@<TRIPOS>BOND
     1    1    2 1
     2    1   35 1
     3    1   36 1
     4    1   37 1
     5    2    7 ar
     6    2    3 ar
     7    3    4 ar
     8    3   38 1
     9    4    5 ar
    10    4   39 1
    11    5    6 ar
    12    5   34 1
    13    6    7 ar
    14    6   40 1
    15    7    8 1
    16    8    9 2
    17    8   10 am
    18   10   11 1
    19   10   41 1
    20   11   16 ar
    21   11   12 ar
    22   12   13 ar
    23   12   42 1
    24   13   14 ar
    25   13   43 1
    26   14   15 ar
    27   14   18 1
    28   15   16 ar
    29   15   17 1
    30   16   44 1
    31   18   19 2
    32   18   20 am
    33   20   29 1
    34   20   21 1
    35   21   22 1
    36   21   45 1
    37   21   46 1
    38   22   26 1
    39   22   23 2
    40   23   24 1
    41   23   47 1
    42   24   25 2
    43   24   48 1
    44   25   26 1
    45   25   49 1
    46   26   27 1
    47   27   28 1
    48   27   50 1
    49   27   51 1
    50   28   33 ar
    51   28   29 ar
    52   29   30 ar
    53   30   31 ar
    54   30   52 1
    55   31   32 ar
    56   31   53 1
    57   32   33 ar
    58   32   54 1
    59   33   55 1
@<TRIPOS>MOLECULE
ZINC42887577
   51    55     0     0     0
SMALL
USER_CHARGES

@<TRIPOS>ATOM
      1 C1         -0.0518    1.5017   -0.1148 C.3       1 <0>        -0.1240
      2 C2          1.3896    2.0009   -0.1884 C.3       1 <0>        -0.1233
      3 C3          2.1792    1.5324    1.0162 C.3       1 <0>        -0.1236
      4 C4          2.0195    0.0939    1.3795 C.3       1 <0>         0.0936
      5 H1          2.2717   -0.0155    2.4343 H         1 <0>         0.0954
      6 C5          0.6350   -0.5290    1.1646 C.3       1 <0>        -0.0591
      7 H2         -0.0167   -0.3840    2.0262 H         1 <0>         0.1072
      8 C6         -0.0335   -0.0263   -0.0957 C.3       1 <0>        -0.1163
      9 C7          1.0170   -1.9803    0.9762 C.2       1 <0>        -0.3344
     10 C8          2.3328   -2.0225    0.6739 C.2       1 <0>         0.2511
     11 O1          2.8682   -0.7933    0.6365 O.3       1 <0>        -0.2589
     12 C9          3.0235   -3.3350    0.3757 C.3       1 <0>        -0.0898
     13 C10         2.3849   -4.4569    1.1913 C.3       1 <0>        -0.0540
     14 C11         0.8856   -4.4170    1.1377 C.ar      1 <0>        -0.2237
     15 C12         0.2049   -3.1948    1.0601 C.ar      1 <0>         0.3605
     16 N1         -1.1238   -3.1799    1.0574 N.ar      1 <0>        -0.5496
     17 C13        -1.8045   -4.3176    1.0919 C.ar      1 <0>         0.6483
     18 N2         -1.1964   -5.4936    1.1387 N.ar      1 <0>        -0.5521
     19 C14         0.1326   -5.5842    1.1657 C.ar      1 <0>         0.5268
     20 N3          0.7537   -6.8224    1.2213 N.pl3     1 <0>        -0.6706
     21 C15         1.1158   -7.4297    2.5114 C.3       1 <0>         0.1172
     22 C16         0.5808   -8.8652    2.5396 C.3       1 <0>        -0.0241
     23 N4          1.0770   -9.5946    1.3658 N.4       1 <0>        -0.5044
     24 C17         0.5361   -8.9955    0.1392 C.3       1 <0>        -0.0241
     25 C18         1.0638   -7.5690   -0.0077 C.3       1 <0>         0.1164
     26 N5         -3.1878   -4.2751    1.0794 N.pl3     1 <0>        -0.7861
     27 H3         -0.5233    1.8744    0.7945 H         1 <0>         0.0723
     28 H4         -0.6061    1.8511   -0.9859 H         1 <0>         0.0790
     29 H5          1.8567    1.6173   -1.0955 H         1 <0>         0.0679
     30 H6          1.3913    3.0905   -0.2174 H         1 <0>         0.0831
     31 H7          3.2358    1.7200    0.8248 H         1 <0>         0.0919
     32 H8          1.8815    2.1354    1.8741 H         1 <0>         0.0970
     33 H9         -1.0557   -0.4014   -0.1447 H         1 <0>         0.0613
     34 H10         0.5270   -0.3925   -0.9558 H         1 <0>         0.0705
     35 H11         2.9287   -3.5606   -0.6864 H         1 <0>         0.1212
     36 H12         4.0793   -3.2553    0.6345 H         1 <0>         0.1271
     37 H13         2.7271   -5.4157    0.8020 H         1 <0>         0.1112
     38 H14         2.7040   -4.3648    2.2295 H         1 <0>         0.1008
     39 H15         2.2003   -7.4408    2.6194 H         1 <0>         0.1031
     40 H16         0.6696   -6.8565    3.3241 H         1 <0>         0.1198
     41 H17         0.9220   -9.3625    3.4475 H         1 <0>         0.1503
     42 H18        -0.5090   -8.8474    2.5225 H         1 <0>         0.1373
     43 H19         2.0848   -9.5495    1.3446 H         1 <0>         0.4310
     44 H20         0.8444   -9.5888   -0.7216 H         1 <0>         0.1504
     45 H21        -0.5523   -8.9737    0.1947 H         1 <0>         0.1374
     46 H22         0.5833   -7.0878   -0.8596 H         1 <0>         0.1202
     47 H23         2.1430   -7.5944   -0.1584 H         1 <0>         0.1025
     48 H24        -3.6465   -3.4211    1.0456 H         1 <0>         0.4335
     49 H25        -3.6986   -5.0994    1.1043 H         1 <0>         0.4469
     50 H26         0.7871  -10.5594    1.4236 H         1 <0>         0.4402
     51 H27        -1.5976   -2.3339    1.0303 H         1 <0>         0.4460
@<TRIPOS>BOND
     1    1    8 1
     2    1    2 1
     3    1   27 1
     4    1   28 1
     5    2    3 1
     6    2   29 1
     7    2   30 1
     8    3    4 1
     9    3   31 1
    10    3   32 1
    11    4    5 1
    12    4   11 1
    13    4    6 1
    14    6    7 1
    15    6    8 1
    16    6    9 1
    17    8   33 1
    18    8   34 1
    19    9   15 1
    20    9   10 2
    21   10   11 1
    22   10   12 1
    23   12   13 1
    24   12   35 1
    25   12   36 1
    26   13   14 1
    27   13   37 1
    28   13   38 1
    29   14   19 ar
    30   14   15 ar
    31   15   16 ar
    32   16   17 ar
    33   16   51 1
    34   17   18 ar
    35   17   26 1
    36   18   19 ar
    37   19   20 1
    38   20   25 1
    39   20   21 1
    40   21   22 1
    41   21   39 1
    42   21   40 1
    43   22   23 1
    44   22   41 1
    45   22   42 1
    46   23   24 1
    47   23   43 1
    48   23   50 1
    49   24   25 1
    50   24   44 1
    51   24   45 1
    52   25   46 1
    53   25   47 1
    54   26   48 1
    55   26   49 1
@<TRIPOS>MOLECULE
ZINC42887577
   50    54     0     0     0
SMALL
USER_CHARGES

@<TRIPOS>ATOM
      1 C1         -0.0518    1.5017   -0.1148 C.3       1 <0>        -0.1220
      2 C2          1.3896    2.0009   -0.1884 C.3       1 <0>        -0.1192
      3 C3          2.1792    1.5324    1.0162 C.3       1 <0>        -0.1147
      4 C4          2.0195    0.0939    1.3795 C.3       1 <0>         0.0898
      5 H1          2.2717   -0.0155    2.4343 H         1 <0>         0.0758
      6 C5          0.6350   -0.5290    1.1646 C.3       1 <0>        -0.0477
      7 H2         -0.0167   -0.3840    2.0262 H         1 <0>         0.0960
      8 C6         -0.0335   -0.0263   -0.0957 C.3       1 <0>        -0.1049
      9 C7          1.0170   -1.9803    0.9762 C.2       1 <0>        -0.2453
     10 C8          2.3328   -2.0225    0.6739 C.2       1 <0>         0.1401
     11 O1          2.8682   -0.7933    0.6365 O.3       1 <0>        -0.2869
     12 C9          3.0235   -3.3350    0.3757 C.3       1 <0>        -0.0663
     13 C10         2.3849   -4.4569    1.1913 C.3       1 <0>        -0.0450
     14 C11         0.8856   -4.4170    1.1377 C.ar      1 <0>        -0.2541
     15 C12         0.2049   -3.1948    1.0601 C.ar      1 <0>         0.3245
     16 N1         -1.1238   -3.1799    1.0574 N.ar      1 <0>        -0.5564
     17 C13        -1.8045   -4.3176    1.0919 C.ar      1 <0>         0.5906
     18 N2         -1.1964   -5.4936    1.1387 N.ar      1 <0>        -0.6006
     19 C14         0.1326   -5.5842    1.1657 C.ar      1 <0>         0.4501
     20 N3          0.7537   -6.8224    1.2213 N.pl3     1 <0>        -0.6608
     21 C15         1.1158   -7.4297    2.5114 C.3       1 <0>         0.1219
     22 C16         0.5808   -8.8652    2.5396 C.3       1 <0>        -0.0241
     23 N4          1.0770   -9.5946    1.3658 N.4       1 <0>        -0.5018
     24 C17         0.5361   -8.9955    0.1392 C.3       1 <0>        -0.0239
     25 C18         1.0638   -7.5690   -0.0077 C.3       1 <0>         0.1212
     26 N5         -3.1878   -4.2751    1.0794 N.pl3     1 <0>        -0.8176
     27 H3         -0.5233    1.8744    0.7945 H         1 <0>         0.0664
     28 H4         -0.6061    1.8511   -0.9859 H         1 <0>         0.0695
     29 H5          1.8567    1.6173   -1.0955 H         1 <0>         0.0639
     30 H6          1.3913    3.0905   -0.2174 H         1 <0>         0.0723
     31 H7          3.2358    1.7200    0.8248 H         1 <0>         0.0806
     32 H8          1.8815    2.1354    1.8741 H         1 <0>         0.0857
     33 H9         -1.0557   -0.4014   -0.1447 H         1 <0>         0.0725
     34 H10         0.5270   -0.3925   -0.9558 H         1 <0>         0.0586
     35 H11         2.9287   -3.5606   -0.6864 H         1 <0>         0.0972
     36 H12         4.0793   -3.2553    0.6345 H         1 <0>         0.1003
     37 H13         2.7271   -5.4157    0.8020 H         1 <0>         0.0853
     38 H14         2.7040   -4.3648    2.2295 H         1 <0>         0.0768
     39 H15         2.2003   -7.4408    2.6194 H         1 <0>         0.0885
     40 H16         0.6696   -6.8565    3.3241 H         1 <0>         0.1147
     41 H17         0.9220   -9.3625    3.4475 H         1 <0>         0.1413
     42 H18        -0.5090   -8.8474    2.5225 H         1 <0>         0.1345
     43 H19         2.0848   -9.5495    1.3446 H         1 <0>         0.4272
     44 H20         0.8444   -9.5888   -0.7216 H         1 <0>         0.1416
     45 H21        -0.5523   -8.9737    0.1947 H         1 <0>         0.1346
     46 H22         0.5833   -7.0878   -0.8596 H         1 <0>         0.1152
     47 H23         2.1430   -7.5944   -0.1584 H         1 <0>         0.0877
     48 H24        -3.6465   -3.4211    1.0456 H         1 <0>         0.4194
     49 H25        -3.6986   -5.0994    1.1043 H         1 <0>         0.4149
     50 H26         0.7871  -10.5594    1.4236 H         1 <0>         0.4326
@<TRIPOS>BOND
     1    1    8 1
     2    1    2 1
     3    1   27 1
     4    1   28 1
     5    2    3 1
     6    2   29 1
     7    2   30 1
     8    3    4 1
     9    3   31 1
    10    3   32 1
    11    4    5 1
    12    4   11 1
    13    4    6 1
    14    6    7 1
    15    6    8 1
    16    6    9 1
    17    8   33 1
    18    8   34 1
    19    9   15 1
    20    9   10 2
    21   10   11 1
    22   10   12 1
    23   12   13 1
    24   12   35 1
    25   12   36 1
    26   13   14 1
    27   13   37 1
    28   13   38 1
    29   14   19 ar
    30   14   15 ar
    31   15   16 ar
    32   16   17 ar
    33   17   18 ar
    34   17   26 1
    35   18   19 ar
    36   19   20 1
    37   20   25 1
    38   20   21 1
    39   21   22 1
    40   21   39 1
    41   21   40 1
    42   22   23 1
    43   22   41 1
    44   22   42 1
    45   23   24 1
    46   23   43 1
    47   23   50 1
    48   24   25 1
    49   24   44 1
    50   24   45 1
    51   25   46 1
    52   25   47 1
    53   26   48 1
    54   26   49 1
@<TRIPOS>MOLECULE
ZINC42887577
   51    55     0     0     0
SMALL
USER_CHARGES

@<TRIPOS>ATOM
      1 C1         -0.0530    1.5009   -0.1188 C.3       1 <0>        -0.1241
      2 C2          1.3884    2.0000   -0.1944 C.3       1 <0>        -0.1226
      3 C3          2.1794    1.5322    1.0096 C.3       1 <0>        -0.1211
      4 C4          2.0201    0.0940    1.3739 C.3       1 <0>         0.0885
      5 H1          2.2735   -0.0148    2.4285 H         1 <0>         0.0910
      6 C5          0.6353   -0.5290    1.1610 C.3       1 <0>        -0.0474
      7 H2         -0.0154   -0.3835    2.0233 H         1 <0>         0.1079
      8 C6         -0.0346   -0.0270   -0.0987 C.3       1 <0>        -0.1091
      9 C7          1.0170   -1.9805    0.9730 C.2       1 <0>        -0.2880
     10 C8          2.3324   -2.0229    0.6692 C.2       1 <0>         0.2249
     11 O1          2.8679   -0.7937    0.6305 O.3       1 <0>        -0.2629
     12 C9          3.0227   -3.3356    0.3710 C.3       1 <0>        -0.0848
     13 C10         2.3850   -4.4570    1.1880 C.3       1 <0>        -0.0597
     14 C11         0.8856   -4.4170    1.1361 C.ar      1 <0>        -0.1763
     15 C12         0.2049   -3.1948    1.0586 C.ar      1 <0>         0.3893
     16 N1         -1.1238   -3.1799    1.0574 N.ar      1 <0>        -0.5112
     17 C13        -1.8045   -4.3176    1.0935 C.ar      1 <0>         0.6478
     18 N2         -1.1964   -5.4935    1.1402 N.ar      1 <0>        -0.5789
     19 C14         0.1326   -5.5842    1.1657 C.ar      1 <0>         0.4358
     20 N3          0.7537   -6.8224    1.2213 N.pl3     1 <0>        -0.6731
     21 C15         1.1158   -7.4297    2.5114 C.3       1 <0>         0.1064
     22 C16         0.5808   -8.8652    2.5396 C.3       1 <0>        -0.0246
     23 N4          1.0770   -9.5946    1.3658 N.4       1 <0>        -0.5057
     24 C17         0.5361   -8.9955    0.1392 C.3       1 <0>        -0.0245
     25 C18         1.0638   -7.5690   -0.0077 C.3       1 <0>         0.1048
     26 N5         -3.1878   -4.2750    1.0825 N.pl3     1 <0>        -0.7858
     27 H3         -0.5234    1.8742    0.7909 H         1 <0>         0.0704
     28 H4         -0.6083    1.8498   -0.9894 H         1 <0>         0.0754
     29 H5          1.8544    1.6159   -1.1017 H         1 <0>         0.0659
     30 H6          1.3901    3.0896   -0.2240 H         1 <0>         0.0797
     31 H7          3.2357    1.7197    0.8169 H         1 <0>         0.0881
     32 H8          1.8828    2.1357    1.8674 H         1 <0>         0.0950
     33 H9         -1.0570   -0.4021   -0.1463 H         1 <0>         0.0741
     34 H10         0.5248   -0.3938   -0.9593 H         1 <0>         0.0610
     35 H11         2.9266   -3.5619   -0.6909 H         1 <0>         0.1187
     36 H12         4.0788   -3.2558    0.6285 H         1 <0>         0.1259
     37 H13         2.7267   -5.4161    0.7988 H         1 <0>         0.1069
     38 H14         2.7053   -4.3643    2.2258 H         1 <0>         0.1056
     39 H15         2.2003   -7.4408    2.6194 H         1 <0>         0.1105
     40 H16         0.6696   -6.8565    3.3241 H         1 <0>         0.1251
     41 H17         0.9220   -9.3625    3.4475 H         1 <0>         0.1558
     42 H18        -0.5090   -8.8474    2.5225 H         1 <0>         0.1333
     43 H19         2.0848   -9.5495    1.3446 H         1 <0>         0.4347
     44 H20         0.8444   -9.5888   -0.7216 H         1 <0>         0.1561
     45 H21        -0.5523   -8.9737    0.1947 H         1 <0>         0.1330
     46 H22         0.5833   -7.0878   -0.8596 H         1 <0>         0.1249
     47 H23         2.1430   -7.5944   -0.1584 H         1 <0>         0.1103
     48 H24        -3.6465   -3.4210    1.0488 H         1 <0>         0.4503
     49 H25        -3.6987   -5.0992    1.1085 H         1 <0>         0.4297
     50 H26         0.7871  -10.5594    1.4236 H         1 <0>         0.4428
     51 H27        -1.7289   -6.3042    1.1559 H         1 <0>         0.4302
@<TRIPOS>BOND
     1    1    8 1
     2    1    2 1
     3    1   27 1
     4    1   28 1
     5    2    3 1
     6    2   29 1
     7    2   30 1
     8    3    4 1
     9    3   31 1
    10    3   32 1
    11    4    5 1
    12    4   11 1
    13    4    6 1
    14    6    7 1
    15    6    8 1
    16    6    9 1
    17    8   33 1
    18    8   34 1
    19    9   15 1
    20    9   10 2
    21   10   11 1
    22   10   12 1
    23   12   13 1
    24   12   35 1
    25   12   36 1
    26   13   14 1
    27   13   37 1
    28   13   38 1
    29   14   19 ar
    30   14   15 ar
    31   15   16 ar
    32   16   17 ar
    33   17   18 ar
    34   17   26 1
    35   18   19 ar
    36   18   51 1
    37   19   20 1
    38   20   25 1
    39   20   21 1
    40   21   22 1
    41   21   39 1
    42   21   40 1
    43   22   23 1
    44   22   41 1
    45   22   42 1
    46   23   24 1
    47   23   43 1
    48   23   50 1
    49   24   25 1
    50   24   44 1
    51   24   45 1
    52   25   46 1
    53   25   47 1
    54   26   48 1
    55   26   49 1
@<TRIPOS>MOLECULE
ZINC00003106
   45    48     0     0     0
SMALL
USER_CHARGES

@<TRIPOS>ATOM
      1 C1         -1.5875    2.2874   -2.5088 C.3       1 <0>        -0.0664
      2 C2         -1.9595    2.4835   -1.0616 C.2       1 <0>         0.1960
      3 N1         -3.0323    3.0791   -0.6129 N.2       1 <0>        -0.2880
      4 N2         -3.0347    3.0764    0.6724 N.2       1 <0>        -0.2737
      5 C3         -1.9564    2.4688    1.1178 C.2       1 <0>         0.2272
      6 N3         -1.2400    2.0697    0.0192 N.pl3     1 <0>        -0.4190
      7 C4         -0.0167    1.3829    0.0096 C.ar      1 <0>         0.0665
      8 C5          0.0021   -0.0041    0.0020 C.ar      1 <0>        -0.0647
      9 C6          1.2080   -0.6783   -0.0131 C.ar      1 <0>        -0.1452
     10 C7          2.3981    0.0261   -0.0212 C.ar      1 <0>        -0.0563
     11 C8          2.3874    1.4082   -0.0136 C.ar      1 <0>        -0.1998
     12 C9          1.1820    2.0920    0.0020 C.ar      1 <0>         0.1516
     13 O1          1.1698    3.4513    0.0090 O.3       1 <0>        -0.3061
     14 C10         2.4371    4.1116    0.0004 C.3       1 <0>         0.0241
     15 C11        -1.5876    2.2565    2.5331 C.ar      1 <0>        -0.0150
     16 C12        -0.5953    1.3317    2.8654 C.ar      1 <0>        -0.1055
     17 C13        -0.2493    1.1377    4.1839 C.ar      1 <0>        -0.1088
     18 C14        -0.8967    1.8571    5.1884 C.ar      1 <0>        -0.0298
     19 C15        -1.8913    2.7776    4.8578 C.ar      1 <0>        -0.1094
     20 C16        -2.2352    2.9764    3.5395 C.ar      1 <0>        -0.0702
     21 C17        -0.5270    1.6437    6.6085 C.ar      1 <0>        -0.0503
     22 C18        -1.1677    2.3655    7.6143 C.ar      1 <0>        -0.1078
     23 C19        -0.8229    2.1592    8.9346 C.ar      1 <0>        -0.1173
     24 C20         0.1635    1.2455    9.2599 C.ar      1 <0>        -0.1161
     25 C21         0.8063    0.5302    8.2656 C.ar      1 <0>        -0.1182
     26 C22         0.4665    0.7247    6.9423 C.ar      1 <0>        -0.1090
     27 H1         -2.0012    1.3442   -2.8656 H         1 <0>         0.0881
     28 H2         -1.9903    3.1083   -3.1019 H         1 <0>         0.0982
     29 H3         -0.5020    2.2678   -2.6055 H         1 <0>         0.0760
     30 H4         -0.9257   -0.5568    0.0075 H         1 <0>         0.1394
     31 H5          1.2213   -1.7582   -0.0190 H         1 <0>         0.1402
     32 H6          3.3383   -0.5051   -0.0330 H         1 <0>         0.1382
     33 H7          3.3185    1.9554   -0.0199 H         1 <0>         0.1419
     34 H8          2.2845    5.1908    0.0073 H         1 <0>         0.1059
     35 H9          3.0050    3.8193    0.8837 H         1 <0>         0.0611
     36 H10         2.9883    3.8283   -0.8962 H         1 <0>         0.0614
     37 H11        -0.0970    0.7713    2.0882 H         1 <0>         0.1296
     38 H12         0.5207    0.4252    4.4408 H         1 <0>         0.1303
     39 H13        -2.3920    3.3342    5.6362 H         1 <0>         0.1344
     40 H14        -3.0053    3.6891    3.2838 H         1 <0>         0.1397
     41 H15        -1.9348    3.0823    7.3611 H         1 <0>         0.1272
     42 H16        -1.3214    2.7149    9.7150 H         1 <0>         0.1258
     43 H17         0.4330    1.0903   10.2942 H         1 <0>         0.1238
     44 H18         1.5759   -0.1816    8.5254 H         1 <0>         0.1250
     45 H19         0.9695    0.1662    6.1668 H         1 <0>         0.1250
@<TRIPOS>BOND
     1    1    2 1
     2    1   27 1
     3    1   28 1
     4    1   29 1
     5    2    6 1
     6    2    3 2
     7    3    4 1
     8    4    5 2
     9    5    6 1
    10    5   15 1
    11    6    7 1
    12    7   12 ar
    13    7    8 ar
    14    8    9 ar
    15    8   30 1
    16    9   10 ar
    17    9   31 1
    18   10   11 ar
    19   10   32 1
    20   11   12 ar
    21   11   33 1
    22   12   13 1
    23   13   14 1
    24   14   34 1
    25   14   35 1
    26   14   36 1
    27   15   20 ar
    28   15   16 ar
    29   16   17 ar
    30   16   37 1
    31   17   18 ar
    32   17   38 1
    33   18   19 ar
    34   18   21 1
    35   19   20 ar
    36   19   39 1
    37   20   40 1
    38   21   26 ar
    39   21   22 ar
    40   22   23 ar
    41   22   41 1
    42   23   24 ar
    43   23   42 1
    44   24   25 ar
    45   24   43 1
    46   25   26 ar
    47   25   44 1
    48   26   45 1
