@<TRIPOS>MOLECULE
ZINC04660627
   41    42     0     0     0
SMALL
USER_CHARGES

@<TRIPOS>ATOM
      1 C1         -0.0187    1.5258    0.0104 C.3       1 <0>        -0.1527
      2 C2          0.0021   -0.0041    0.0020 C.3       1 <0>         0.0591
      3 O1         -1.3386   -0.4987    0.0122 O.3       1 <0>        -0.3520
      4 C3         -1.4964   -1.8317    0.0065 C.2       1 <0>         0.4637
      5 O2         -0.5283   -2.5546   -0.0066 O.2       1 <0>        -0.5010
      6 C4         -2.8809   -2.4266    0.0165 C.3       1 <0>        -0.0782
      7 C5         -3.6228   -1.9703    1.2749 C.3       1 <0>        -0.1249
      8 C6         -5.0413   -2.5487    1.2646 C.3       1 <0>         0.1160
      9 N1         -4.9561   -4.0073    1.1098 N.pl3     1 <0>        -0.9962
     10 C7         -4.1888   -4.5545   -0.0174 C.3       1 <0>         0.1144
     11 C8         -2.7798   -3.9536    0.0074 C.3       1 <0>        -0.1182
     12 S1         -5.7102   -5.0154    2.1857 S.o2      1 <0>         2.6924
     13 O3         -5.0215   -6.2571    2.1300 O.2       1 <0>        -0.9352
     14 O4         -5.8608   -4.2813    3.3930 O.2       1 <0>        -0.9370
     15 C9         -7.3345   -5.3124    1.5708 C.ar      1 <0>        -0.6838
     16 C10        -8.3740   -4.4755    1.9324 C.ar      1 <0>         0.0392
     17 C11        -9.6480   -4.7077    1.4501 C.ar      1 <0>        -0.1285
     18 C12        -9.8833   -5.7779    0.6052 C.ar      1 <0>         0.0611
     19 C13        -8.8429   -6.6149    0.2437 C.ar      1 <0>        -0.0671
     20 C14        -7.5678   -6.3785    0.7226 C.ar      1 <0>         0.0565
     21 N2         -9.0937   -7.7598   -0.6599 N.pl3     1 <0>         0.0299
     22 O5         -8.1843   -8.4912   -0.9757 O.2       1 <0>        -0.1469
     23 O6        -10.2080   -7.9637   -1.0823 O.3       1 <0>        -0.1276
     24 Cl1       -11.4837   -6.0705   -0.0006 Cl        1 <0>         0.0155
     25 H1          1.0039    1.9031    0.0027 H         1 <0>         0.0806
     26 H2         -0.5459    1.8868   -0.8726 H         1 <0>         0.0670
     27 H3         -0.5289    1.8773    0.9072 H         1 <0>         0.0673
     28 H4          0.5123   -0.3556   -0.8948 H         1 <0>         0.0681
     29 H5          0.5293   -0.3651    0.8851 H         1 <0>         0.0683
     30 H6         -3.4257   -2.0934   -0.8668 H         1 <0>         0.1145
     31 H7         -3.0920   -2.3243    2.1587 H         1 <0>         0.0791
     32 H8         -3.6740   -0.8816    1.2925 H         1 <0>         0.0961
     33 H9         -5.5403   -2.3094    2.2036 H         1 <0>         0.1033
     34 H10        -5.6026   -2.1250    0.4318 H         1 <0>         0.0804
     35 H11        -4.1253   -5.6386    0.0758 H         1 <0>         0.1048
     36 H12        -4.6805   -4.2944   -0.9547 H         1 <0>         0.0791
     37 H13        -2.2310   -4.2766   -0.8773 H         1 <0>         0.0921
     38 H14        -2.2570   -4.2890    0.9030 H         1 <0>         0.0831
     39 H15        -8.1903   -3.6404    2.5921 H         1 <0>         0.1700
     40 H16       -10.4600   -4.0541    1.7329 H         1 <0>         0.1699
     41 H17        -6.7546   -7.0293    0.4370 H         1 <0>         0.1779
@<TRIPOS>BOND
     1    1    2 1
     2    1   25 1
     3    1   26 1
     4    1   27 1
     5    2    3 1
     6    2   28 1
     7    2   29 1
     8    3    4 1
     9    4    5 2
    10    4    6 1
    11    6   11 1
    12    6    7 1
    13    6   30 1
    14    7    8 1
    15    7   31 1
    16    7   32 1
    17    8    9 1
    18    8   33 1
    19    8   34 1
    20    9   10 1
    21    9   12 1
    22   10   11 1
    23   10   35 1
    24   10   36 1
    25   11   37 1
    26   11   38 1
    27   12   13 2
    28   12   14 2
    29   12   15 1
    30   15   20 ar
    31   15   16 ar
    32   16   17 ar
    33   16   39 1
    34   17   18 ar
    35   17   40 1
    36   18   19 ar
    37   18   24 1
    38   19   20 ar
    39   19   21 1
    40   20   41 1
    41   21   22 2
    42   21   23 1
@<TRIPOS>MOLECULE
ZINC01668454
   17    17     0     0     0
SMALL
USER_CHARGES
3,5-dinitrobenzonitrile
@<TRIPOS>ATOM
      1 C1          2.3967    0.0105   -0.0209 C.ar      1 <0>         0.0341
      2 C2          2.3851    1.4068   -0.0137 C.ar      1 <0>        -0.0008
      3 C3          1.1666    2.0885    0.0021 C.ar      1 <0>         0.0341
      4 C4         -0.0167    1.3794    0.0096 C.ar      1 <0>        -0.0400
      5 C5          0.0021   -0.0041    0.0020 C.ar      1 <0>         0.0296
      6 C6          1.2059   -0.6859   -0.0127 C.ar      1 <0>        -0.0399
      7 N1          1.2162   -2.1660   -0.0203 N.pl3     1 <0>         0.0226
      8 O1          0.1656   -2.7824   -0.0135 O.2       1 <0>        -0.1267
      9 O2          2.2751   -2.7677   -0.0333 O.3       1 <0>        -0.1291
     10 N2         -1.3094    2.1003    0.0197 N.pl3     1 <0>         0.0227
     11 O3         -2.3550    1.4756    0.0212 O.2       1 <0>        -0.1266
     12 O4         -1.3275    3.3181    0.0264 O.3       1 <0>        -0.1291
     13 C7          3.6173    2.1363   -0.0226 C.1       1 <0>         0.2371
     14 N3          4.5948    2.7151   -0.0296 N.1       1 <0>        -0.3506
     15 H1          3.3356   -0.5229   -0.0331 H         1 <0>         0.1850
     16 H2          1.1505    3.1683    0.0078 H         1 <0>         0.1850
     17 H3         -0.9272   -0.5543    0.0080 H         1 <0>         0.1926
@<TRIPOS>BOND
     1    1    6 ar
     2    1    2 ar
     3    1   15 1
     4    2    3 ar
     5    2   13 1
     6    3    4 ar
     7    3   16 1
     8    4    5 ar
     9    4   10 1
    10    5    6 ar
    11    5   17 1
    12    6    7 1
    13    7    8 2
    14    7    9 1
    15   10   11 2
    16   10   12 1
    17   13   14 3
@<TRIPOS>MOLECULE
ZINC01596706
   29    30     0     0     0
SMALL
USER_CHARGES
1-fluoro-4-(4-fluoro-3-nitro-phenyl)sulfonyl-2-nitro-benzene
@<TRIPOS>ATOM
      1 C1         -1.8794    1.0516   -1.9520 C.ar      1 <0>         0.0559
      2 C2         -2.6186    1.4437   -3.0518 C.ar      1 <0>        -0.1685
      3 C3         -2.4239    2.6981   -3.6046 C.ar      1 <0>         0.2306
      4 C4         -1.4925    3.5604   -3.0512 C.ar      1 <0>        -0.1042
      5 C5         -0.7585    3.1682   -1.9479 C.ar      1 <0>         0.0717
      6 C6         -0.9538    1.9155   -1.3968 C.ar      1 <0>        -0.6851
      7 S1         -0.0172    1.4168    0.0098 S.o2      1 <0>         2.5970
      8 O1          0.0021   -0.0041    0.0020 O.2       1 <0>        -0.9049
      9 O2          1.1718    2.1948    0.0027 O.2       1 <0>        -0.9049
     10 C7         -0.9267    1.9002    1.4394 C.ar      1 <0>        -0.6851
     11 C8         -0.7167    3.1448    2.0034 C.ar      1 <0>         0.0559
     12 C9         -1.4336    3.5272    3.1213 C.ar      1 <0>        -0.1685
     13 C10        -2.3543    2.6590    3.6831 C.ar      1 <0>         0.2305
     14 C11        -2.5597    1.4105    3.1207 C.ar      1 <0>        -0.1041
     15 C12        -1.8457    1.0325    1.9995 C.ar      1 <0>         0.0717
     16 N1         -3.5438    0.4815    3.7198 N.pl3     1 <0>         0.0258
     17 O3         -3.7246   -0.6165    3.2246 O.2       1 <0>        -0.1384
     18 O4         -4.1729    0.8150    4.7080 O.3       1 <0>        -0.1347
     19 F1         -3.0520    3.0298    4.7790 F         1 <0>        -0.0853
     20 N2         -1.2836    4.9018   -3.6407 N.pl3     1 <0>         0.0258
     21 O5         -0.4646    5.6603   -3.1534 O.2       1 <0>        -0.1384
     22 O6         -1.9307    5.2472   -4.6130 O.3       1 <0>        -0.1346
     23 F2         -3.1423    3.0807   -4.6829 F         1 <0>        -0.0853
     24 H1         -2.0277    0.0713   -1.5235 H         1 <0>         0.1771
     25 H2         -3.3445    0.7702   -3.4829 H         1 <0>         0.1776
     26 H3         -0.0318    3.8405   -1.5163 H         1 <0>         0.1840
     27 H4          0.0049    3.8200    1.5678 H         1 <0>         0.1771
     28 H5         -1.2724    4.5012    3.5594 H         1 <0>         0.1776
     29 H6         -2.0055    0.0586    1.5608 H         1 <0>         0.1840
@<TRIPOS>BOND
     1    1    6 ar
     2    1    2 ar
     3    1   24 1
     4    2    3 ar
     5    2   25 1
     6    3    4 ar
     7    3   23 1
     8    4    5 ar
     9    4   20 1
    10    5    6 ar
    11    5   26 1
    12    6    7 1
    13    7    8 2
    14    7    9 2
    15    7   10 1
    16   10   15 ar
    17   10   11 ar
    18   11   12 ar
    19   11   27 1
    20   12   13 ar
    21   12   28 1
    22   13   14 ar
    23   13   19 1
    24   14   15 ar
    25   14   16 1
    26   15   29 1
    27   16   17 2
    28   16   18 1
    29   20   21 2
    30   20   22 1
@<TRIPOS>MOLECULE
ZINC36021336
   34    35     0     0     0
SMALL
USER_CHARGES

@<TRIPOS>ATOM
      1 C1         -0.0178    1.4648    0.0101 C.3       1 <0>         0.0239
      2 N1          0.0021   -0.0041    0.0020 N.3       1 <0>        -0.5429
      3 C2         -1.3591   -0.5485   -0.0908 C.3       1 <0>         0.0422
      4 C3         -1.2864   -2.0676   -0.2787 C.3       1 <0>         0.1184
      5 N2         -0.4627   -2.6330    0.8007 N.pl3     1 <0>        -0.9958
      6 C4          0.8636   -2.0457    1.0444 C.3       1 <0>         0.1173
      7 C5          0.7062   -0.5275    1.1802 C.3       1 <0>         0.0428
      8 S1         -1.0137   -3.8975    1.7170 S.o2      1 <0>         2.6928
      9 O1         -0.3116   -3.8411    2.9511 O.2       1 <0>        -0.9377
     10 O2         -2.4325   -3.8630    1.6455 O.2       1 <0>        -0.9388
     11 C6         -0.5051   -5.3820    0.9157 C.ar      1 <0>        -0.6831
     12 C7         -1.3228   -5.9717   -0.0306 C.ar      1 <0>         0.0395
     13 C8         -0.9242   -7.1357   -0.6597 C.ar      1 <0>        -0.1285
     14 C9          0.2936   -7.7112   -0.3426 C.ar      1 <0>         0.0611
     15 C10         1.1113   -7.1208    0.6042 C.ar      1 <0>        -0.0671
     16 C11         0.7138   -5.9535    1.2291 C.ar      1 <0>         0.0568
     17 N3          2.4139   -7.7357    0.9440 N.pl3     1 <0>         0.0302
     18 O3          3.1285   -7.2196    1.7715 O.2       1 <0>        -0.1474
     19 O4          2.7635   -8.7541    0.3941 O.3       1 <0>        -0.1276
     20 Cl1         0.7947   -9.1738   -1.1321 Cl        1 <0>         0.0154
     21 H1          1.0047    1.8421    0.0024 H         1 <0>         0.0723
     22 H2         -0.5450    1.8259   -0.8730 H         1 <0>         0.0717
     23 H3         -0.5280    1.8163    0.9069 H         1 <0>         0.0283
     24 H4         -1.9051   -0.3210    0.8248 H         1 <0>         0.0437
     25 H5         -1.8727   -0.1009   -0.9417 H         1 <0>         0.0924
     26 H6         -2.2899   -2.4906   -0.2334 H         1 <0>         0.1001
     27 H7         -0.8330   -2.2960   -1.2432 H         1 <0>         0.0820
     28 H8          1.2814   -2.4543    1.9645 H         1 <0>         0.1013
     29 H9          1.5237   -2.2720    0.2071 H         1 <0>         0.0821
     30 H10         1.6905   -0.0647    1.2511 H         1 <0>         0.0931
     31 H11         0.1315   -0.3003    2.0781 H         1 <0>         0.0442
     32 H12        -2.2734   -5.5226   -0.2778 H         1 <0>         0.1697
     33 H13        -1.5632   -7.5964   -1.3986 H         1 <0>         0.1700
     34 H14         1.3541   -5.4901    1.9650 H         1 <0>         0.1775
@<TRIPOS>BOND
     1    1    2 1
     2    1   21 1
     3    1   22 1
     4    1   23 1
     5    2    7 1
     6    2    3 1
     7    3    4 1
     8    3   24 1
     9    3   25 1
    10    4    5 1
    11    4   26 1
    12    4   27 1
    13    5    6 1
    14    5    8 1
    15    6    7 1
    16    6   28 1
    17    6   29 1
    18    7   30 1
    19    7   31 1
    20    8    9 2
    21    8   10 2
    22    8   11 1
    23   11   16 ar
    24   11   12 ar
    25   12   13 ar
    26   12   32 1
    27   13   14 ar
    28   13   33 1
    29   14   15 ar
    30   14   20 1
    31   15   16 ar
    32   15   17 1
    33   16   34 1
    34   17   18 2
    35   17   19 1
@<TRIPOS>MOLECULE
ZINC03885257
   29    30     0     0     0
SMALL
USER_CHARGES

@<TRIPOS>ATOM
      1 C1         -0.0167    1.3780    0.0096 C.ar      1 <0>         0.0395
      2 C2          1.1708    2.0857    0.0021 C.ar      1 <0>        -0.1289
      3 C3          2.3780    1.4104   -0.0131 C.ar      1 <0>         0.0609
      4 C4          2.3961    0.0268   -0.0207 C.ar      1 <0>        -0.0676
      5 C5          1.2084   -0.6796   -0.0132 C.ar      1 <0>         0.0570
      6 C6          0.0021   -0.0041    0.0020 C.ar      1 <0>        -0.6849
      7 S1         -1.5119   -0.9054    0.0122 S.o2      1 <0>         2.7114
      8 O1         -1.2184   -2.1862    0.5533 O.2       1 <0>        -0.9352
      9 O2         -2.4923   -0.0460    0.5775 O.2       1 <0>        -0.9360
     10 N1         -1.9484   -1.1474   -1.5668 N.pl3     1 <0>        -1.0090
     11 C7         -2.7800   -0.2429   -2.3741 C.3       1 <0>         0.1151
     12 C8         -2.9409   -0.8888   -3.7664 C.3       1 <0>        -0.1299
     13 C9         -2.6626   -2.3895   -3.4875 C.3       1 <0>        -0.1288
     14 C10        -1.5621   -2.3023   -2.3977 C.3       1 <0>         0.1088
     15 N2          3.6873   -0.6964   -0.0374 N.pl3     1 <0>         0.0302
     16 O3          3.7030   -1.9053   -0.0441 O.2       1 <0>        -0.1476
     17 O4          4.7263   -0.0784   -0.0445 O.3       1 <0>        -0.1273
     18 Cl1         3.8696    2.2984   -0.0231 Cl        1 <0>         0.0154
     19 H1         -0.9592    1.9051    0.0260 H         1 <0>         0.1700
     20 H2          1.1560    3.1655    0.0077 H         1 <0>         0.1700
     21 H3          1.2224   -1.7595   -0.0195 H         1 <0>         0.1780
     22 H4         -3.7571   -0.1215   -1.9067 H         1 <0>         0.0795
     23 H5         -2.2894    0.7258   -2.4694 H         1 <0>         0.0673
     24 H6         -3.9543   -0.7479   -4.1422 H         1 <0>         0.0861
     25 H7         -2.2093   -0.4845   -4.4660 H         1 <0>         0.0776
     26 H8         -3.5544   -2.8883   -3.1079 H         1 <0>         0.0811
     27 H9         -2.2871   -2.8898   -4.3802 H         1 <0>         0.0874
     28 H10        -0.5865   -2.1325   -2.8531 H         1 <0>         0.0702
     29 H11        -1.5488   -3.2129   -1.7988 H         1 <0>         0.0900
@<TRIPOS>BOND
     1    1    6 ar
     2    1    2 ar
     3    1   19 1
     4    2    3 ar
     5    2   20 1
     6    3    4 ar
     7    3   18 1
     8    4    5 ar
     9    4   15 1
    10    5    6 ar
    11    5   21 1
    12    6    7 1
    13    7    8 2
    14    7    9 2
    15    7   10 1
    16   10   14 1
    17   10   11 1
    18   11   12 1
    19   11   22 1
    20   11   23 1
    21   12   13 1
    22   12   24 1
    23   12   25 1
    24   13   14 1
    25   13   26 1
    26   13   27 1
    27   14   28 1
    28   14   29 1
    29   15   16 2
    30   15   17 1
@<TRIPOS>MOLECULE
ZINC29487406
   28    28     0     0     0
SMALL
USER_CHARGES

@<TRIPOS>ATOM
      1 C1         -0.0187    1.5258    0.0104 C.3       1 <0>        -0.1797
      2 C2          0.0021   -0.0041    0.0020 C.3       1 <0>         0.1047
      3 N1          0.6878   -0.4765   -1.2033 N.pl3     1 <0>        -0.9957
      4 C3          2.1478   -0.5966   -1.2159 C.3       1 <0>         0.0871
      5 S1         -0.1875   -0.8749   -2.5515 S.o2      1 <0>         2.6929
      6 O1          0.6099   -1.7823   -3.2999 O.2       1 <0>        -0.9368
      7 O2         -1.4963   -1.2007   -2.1043 O.2       1 <0>        -0.9388
      8 C4         -0.3372    0.5856   -3.5257 C.ar      1 <0>        -0.6830
      9 C5         -1.4055    1.4410   -3.3291 C.ar      1 <0>         0.0386
     10 C6         -1.5232    2.5868   -4.0926 C.ar      1 <0>        -0.1286
     11 C7         -0.5716    2.8781   -5.0540 C.ar      1 <0>         0.0610
     12 C8          0.4970    2.0219   -5.2503 C.ar      1 <0>        -0.0671
     13 C9          0.6165    0.8787   -4.4823 C.ar      1 <0>         0.0561
     14 N2          1.5152    2.3327   -6.2785 N.pl3     1 <0>         0.0301
     15 O3          2.4492    1.5843   -6.4499 O.2       1 <0>        -0.1478
     16 O4          1.4131    3.3349   -6.9469 O.3       1 <0>        -0.1274
     17 Cl1        -0.7192    4.3170   -6.0139 Cl        1 <0>         0.0152
     18 H1          1.0039    1.9031    0.0027 H         1 <0>         0.0636
     19 H2         -0.5459    1.8868   -0.8726 H         1 <0>         0.0510
     20 H3         -0.5289    1.8773    0.9072 H         1 <0>         0.0764
     21 H4          0.5293   -0.3651    0.8851 H         1 <0>         0.0925
     22 H5         -1.0205   -0.3814    0.0098 H         1 <0>         0.0977
     23 H6          2.4332   -1.5946   -0.8832 H         1 <0>         0.0693
     24 H7          2.5172   -0.4316   -2.2281 H         1 <0>         0.0728
     25 H8          2.5793    0.1470   -0.5459 H         1 <0>         0.0789
     26 H9         -2.1484    1.2134   -2.5789 H         1 <0>         0.1697
     27 H10        -2.3580    3.2547   -3.9391 H         1 <0>         0.1698
     28 H11         1.4532    0.2125   -4.6324 H         1 <0>         0.1775
@<TRIPOS>BOND
     1    1    2 1
     2    1   18 1
     3    1   19 1
     4    1   20 1
     5    2    3 1
     6    2   21 1
     7    2   22 1
     8    3    4 1
     9    3    5 1
    10    4   23 1
    11    4   24 1
    12    4   25 1
    13    5    6 2
    14    5    7 2
    15    5    8 1
    16    8   13 ar
    17    8    9 ar
    18    9   10 ar
    19    9   26 1
    20   10   11 ar
    21   10   27 1
    22   11   12 ar
    23   11   17 1
    24   12   13 ar
    25   12   14 1
    26   13   28 1
    27   14   15 2
    28   14   16 1
@<TRIPOS>MOLECULE
ZINC01609559
   15    15     0     0     0
SMALL
USER_CHARGES
4-chloro-2-nitro-benzonitrile
@<TRIPOS>ATOM
      1 C1         -1.2154    1.7506    0.0173 C.ar      1 <0>        -0.0572
      2 C2         -0.0126    1.0758    0.0080 C.ar      1 <0>        -0.0568
      3 C3          1.1863    1.7919    0.0004 C.ar      1 <0>         0.0538
      4 C4          1.1589    3.1884    0.0076 C.ar      1 <0>         0.0016
      5 C5         -0.0499    3.8513    0.0223 C.ar      1 <0>        -0.0450
      6 C6         -1.2358    3.1352    0.0293 C.ar      1 <0>        -0.0184
      7 Cl1        -2.7538    3.9772    0.0471 Cl        1 <0>        -0.0196
      8 N1          2.4251    3.9550    0.0001 N.pl3     1 <0>         0.0205
      9 O1          2.3997    5.1727    0.0065 O.2       1 <0>        -0.1287
     10 O2          3.4923    3.3681   -0.0124 O.3       1 <0>        -0.1458
     11 C7          2.4385    1.0974   -0.0153 C.1       1 <0>         0.2232
     12 N2          3.4318    0.5464   -0.0277 N.1       1 <0>        -0.3408
     13 H1         -2.1433    1.1979    0.0187 H         1 <0>         0.1675
     14 H2          0.0021   -0.0041    0.0020 H         1 <0>         0.1701
     15 H3         -0.0724    4.9310    0.0279 H         1 <0>         0.1755
@<TRIPOS>BOND
     1    1    6 ar
     2    1    2 ar
     3    1   13 1
     4    2    3 ar
     5    2   14 1
     6    3    4 ar
     7    3   11 1
     8    4    5 ar
     9    4    8 1
    10    5    6 ar
    11    5   15 1
    12    6    7 1
    13    8    9 2
    14    8   10 1
    15   11   12 3
@<TRIPOS>MOLECULE
ZINC04670198
   43    43     0     0     0
SMALL
USER_CHARGES

@<TRIPOS>ATOM
      1 C1         -0.0187    1.5258    0.0104 C.3       1 <0>        -0.1540
      2 C2          0.0021   -0.0041    0.0020 C.3       1 <0>        -0.1240
      3 C3         -1.4333   -0.5336    0.0129 C.3       1 <0>        -0.1453
      4 C4         -1.4126   -2.0635    0.0045 C.3       1 <0>         0.1082
      5 N1         -2.7870   -2.5706    0.0149 N.pl3     1 <0>        -0.9903
      6 C5         -3.5245   -2.7136   -1.2428 C.3       1 <0>         0.1189
      7 C6         -3.1874   -4.0626   -1.8812 C.3       1 <0>        -0.1417
      8 C7         -3.9576   -4.2119   -3.1947 C.3       1 <0>        -0.1231
      9 C8         -3.6205   -5.5609   -3.8331 C.3       1 <0>        -0.1538
     10 S1         -3.5069   -2.9821    1.4483 S.o2      1 <0>         2.6889
     11 O1         -4.5305   -3.9166    1.1351 O.2       1 <0>        -0.9353
     12 O2         -2.4575   -3.2785    2.3594 O.2       1 <0>        -0.9391
     13 C9         -4.3122   -1.5392    2.0599 C.ar      1 <0>        -0.6832
     14 C10        -3.6296   -0.6636    2.8838 C.ar      1 <0>         0.0387
     15 C11        -4.2605    0.4685    3.3635 C.ar      1 <0>        -0.1283
     16 C12        -5.5758    0.7256    3.0190 C.ar      1 <0>         0.0612
     17 C13        -6.2583   -0.1509    2.1947 C.ar      1 <0>        -0.0667
     18 C14        -5.6244   -1.2802    1.7112 C.ar      1 <0>         0.0563
     19 N2         -7.6651    0.1234    1.8258 N.pl3     1 <0>         0.0302
     20 O3         -8.2615   -0.6427    1.1053 O.2       1 <0>        -0.1477
     21 O4         -8.2180    1.1135    2.2449 O.3       1 <0>        -0.1276
     22 Cl1        -6.3693    2.1472    3.6216 Cl        1 <0>         0.0151
     23 H1          1.0039    1.9031    0.0027 H         1 <0>         0.0576
     24 H2         -0.5459    1.8868   -0.8726 H         1 <0>         0.0540
     25 H3         -0.5289    1.8773    0.9072 H         1 <0>         0.0528
     26 H4          0.5123   -0.3556   -0.8948 H         1 <0>         0.0675
     27 H5          0.5293   -0.3651    0.8851 H         1 <0>         0.0674
     28 H6         -1.9435   -0.1821    0.9097 H         1 <0>         0.0584
     29 H7         -1.9605   -0.1726   -0.8702 H         1 <0>         0.0716
     30 H8         -0.9024   -2.4150   -0.8923 H         1 <0>         0.0929
     31 H9         -0.8854   -2.4246    0.8875 H         1 <0>         0.0975
     32 H10        -4.5950   -2.6631   -1.0440 H         1 <0>         0.0827
     33 H11        -3.2429   -1.9094   -1.9226 H         1 <0>         0.0856
     34 H12        -2.1169   -4.1130   -2.0800 H         1 <0>         0.0698
     35 H13        -3.4690   -4.8667   -1.2014 H         1 <0>         0.0730
     36 H14        -5.0282   -4.1614   -2.9959 H         1 <0>         0.0665
     37 H15        -3.6760   -3.4078   -3.8745 H         1 <0>         0.0633
     38 H16        -2.5500   -5.6114   -4.0319 H         1 <0>         0.0537
     39 H17        -3.9021   -6.3651   -3.1533 H         1 <0>         0.0559
     40 H18        -4.1693   -5.6673   -4.7688 H         1 <0>         0.0561
     41 H19        -2.6031   -0.8645    3.1529 H         1 <0>         0.1691
     42 H20        -3.7273    1.1522    4.0074 H         1 <0>         0.1695
     43 H21        -6.1558   -1.9623    1.0640 H         1 <0>         0.1772
@<TRIPOS>BOND
     1    1    2 1
     2    1   23 1
     3    1   24 1
     4    1   25 1
     5    2    3 1
     6    2   26 1
     7    2   27 1
     8    3    4 1
     9    3   28 1
    10    3   29 1
    11    4    5 1
    12    4   30 1
    13    4   31 1
    14    5    6 1
    15    5   10 1
    16    6    7 1
    17    6   32 1
    18    6   33 1
    19    7    8 1
    20    7   34 1
    21    7   35 1
    22    8    9 1
    23    8   36 1
    24    8   37 1
    25    9   38 1
    26    9   39 1
    27    9   40 1
    28   10   11 2
    29   10   12 2
    30   10   13 1
    31   13   18 ar
    32   13   14 ar
    33   14   15 ar
    34   14   41 1
    35   15   16 ar
    36   15   42 1
    37   16   17 ar
    38   16   22 1
    39   17   18 ar
    40   17   19 1
    41   18   43 1
    42   19   20 2
    43   19   21 1
@<TRIPOS>MOLECULE
ZINC04263354
   37    37     0     0     0
SMALL
USER_CHARGES

@<TRIPOS>ATOM
      1 C1         -0.0187    1.5258    0.0104 C.3       1 <0>        -0.1531
      2 C2          0.0021   -0.0041    0.0020 C.3       1 <0>        -0.1487
      3 C3         -1.4333   -0.5336    0.0129 C.3       1 <0>         0.1080
      4 N1         -1.4134   -1.9985    0.0048 N.pl3     1 <0>        -0.9911
      5 C4         -1.2809   -2.7362    1.2636 C.3       1 <0>         0.1187
      6 C5         -2.6603   -2.9046    1.9037 C.3       1 <0>        -0.1454
      7 C6         -2.5218   -3.6750    3.2183 C.3       1 <0>        -0.1521
      8 S1         -1.5408   -2.8204   -1.4271 S.o2      1 <0>         2.6893
      9 O1         -2.0455   -4.1107   -1.1113 O.2       1 <0>        -0.9355
     10 O2         -2.1951   -1.9488   -2.3389 O.2       1 <0>        -0.9392
     11 C7          0.0943   -3.0554   -2.0402 C.ar      1 <0>        -0.6832
     12 C8          0.6657   -2.1053   -2.8663 C.ar      1 <0>         0.0385
     13 C9          1.9483   -2.2888   -3.3471 C.ar      1 <0>        -0.1283
     14 C10         2.6606   -3.4237   -3.0016 C.ar      1 <0>         0.0611
     15 C11         2.0883   -4.3739   -2.1750 C.ar      1 <0>        -0.0668
     16 C12         0.8073   -4.1867   -1.6905 C.ar      1 <0>         0.0563
     17 N2          2.8496   -5.5880   -1.8050 N.pl3     1 <0>         0.0302
     18 O3          2.3493   -6.4184   -1.0827 O.2       1 <0>        -0.1476
     19 O4          3.9717   -5.7494   -2.2252 O.3       1 <0>        -0.1276
     20 Cl1         4.2716   -3.6552   -3.6056 Cl        1 <0>         0.0152
     21 H1          1.0039    1.9031    0.0027 H         1 <0>         0.0597
     22 H2         -0.5459    1.8868   -0.8726 H         1 <0>         0.0601
     23 H3         -0.5289    1.8773    0.9072 H         1 <0>         0.0602
     24 H4          0.5123   -0.3556   -0.8948 H         1 <0>         0.0576
     25 H5          0.5293   -0.3651    0.8851 H         1 <0>         0.0707
     26 H6         -1.9435   -0.1821    0.9097 H         1 <0>         0.0928
     27 H7         -1.9605   -0.1726   -0.8702 H         1 <0>         0.0976
     28 H8         -0.8498   -3.7176    1.0659 H         1 <0>         0.0828
     29 H9         -0.6306   -2.1837    1.9418 H         1 <0>         0.0855
     30 H10        -3.0913   -1.9231    2.1014 H         1 <0>         0.0690
     31 H11        -3.3106   -3.4571    1.2255 H         1 <0>         0.0724
     32 H12        -3.5045   -3.7949    3.6744 H         1 <0>         0.0608
     33 H13        -2.0908   -4.6564    3.0206 H         1 <0>         0.0594
     34 H14        -1.8715   -3.1225    3.8965 H         1 <0>         0.0561
     35 H15         0.1095   -1.2197   -3.1362 H         1 <0>         0.1693
     36 H16         2.3944   -1.5468   -3.9926 H         1 <0>         0.1697
     37 H17         0.3620   -4.9263   -1.0416 H         1 <0>         0.1772
@<TRIPOS>BOND
     1    1    2 1
     2    1   21 1
     3    1   22 1
     4    1   23 1
     5    2    3 1
     6    2   24 1
     7    2   25 1
     8    3    4 1
     9    3   26 1
    10    3   27 1
    11    4    5 1
    12    4    8 1
    13    5    6 1
    14    5   28 1
    15    5   29 1
    16    6    7 1
    17    6   30 1
    18    6   31 1
    19    7   32 1
    20    7   33 1
    21    7   34 1
    22    8    9 2
    23    8   10 2
    24    8   11 1
    25   11   16 ar
    26   11   12 ar
    27   12   13 ar
    28   12   35 1
    29   13   14 ar
    30   13   36 1
    31   14   15 ar
    32   14   20 1
    33   15   16 ar
    34   15   17 1
    35   16   37 1
    36   17   18 2
    37   17   19 1
@<TRIPOS>MOLECULE
ZINC03885322
   25    25     0     0     0
SMALL
USER_CHARGES

@<TRIPOS>ATOM
      1 C1         -0.0178    1.4608    0.0101 C.3       1 <0>         0.0848
      2 N1          0.0021   -0.0041    0.0020 N.pl3     1 <0>        -1.0017
      3 C2          1.2806   -0.7192   -0.0140 C.3       1 <0>         0.0865
      4 S1         -1.4206   -0.8515    0.0111 S.o2      1 <0>         2.6958
      5 O1         -1.1271   -2.1322    0.5522 O.2       1 <0>        -0.9363
      6 O2         -2.4015    0.0076    0.5759 O.2       1 <0>        -0.9373
      7 C3         -1.8843   -1.1091   -1.6692 C.ar      1 <0>        -0.6840
      8 C4         -2.6741   -0.1784   -2.3186 C.ar      1 <0>         0.0388
      9 C5         -3.0377   -0.3796   -3.6365 C.ar      1 <0>        -0.1287
     10 C6         -2.6111   -1.5128   -4.3064 C.ar      1 <0>         0.0608
     11 C7         -1.8209   -2.4435   -3.6562 C.ar      1 <0>        -0.0675
     12 C8         -1.4535   -2.2386   -2.3394 C.ar      1 <0>         0.0556
     13 N2         -1.3642   -3.6558   -4.3719 N.pl3     1 <0>         0.0300
     14 O3         -0.6736   -4.4692   -3.8035 O.2       1 <0>        -0.1475
     15 O4         -1.6818   -3.8327   -5.5249 O.3       1 <0>        -0.1273
     16 Cl1        -3.0680   -1.7665   -5.9619 Cl        1 <0>         0.0155
     17 H1          1.0048    1.8381    0.0023 H         1 <0>         0.0879
     18 H2         -0.5450    1.8219   -0.8730 H         1 <0>         0.0605
     19 H3         -0.5280    1.8123    0.9069 H         1 <0>         0.0744
     20 H4          1.6074   -0.9021    1.0096 H         1 <0>         0.0690
     21 H5          1.1583   -1.6705   -0.5318 H         1 <0>         0.0731
     22 H6          2.0272   -0.1171   -0.5318 H         1 <0>         0.0793
     23 H7         -3.0073    0.7058   -1.7956 H         1 <0>         0.1703
     24 H8         -3.6550    0.3472   -4.1435 H         1 <0>         0.1701
     25 H9         -0.8328   -2.9630   -1.8330 H         1 <0>         0.1779
@<TRIPOS>BOND
     1    1    2 1
     2    1   17 1
     3    1   18 1
     4    1   19 1
     5    2    3 1
     6    2    4 1
     7    3   20 1
     8    3   21 1
     9    3   22 1
    10    4    5 2
    11    4    6 2
    12    4    7 1
    13    7   12 ar
    14    7    8 ar
    15    8    9 ar
    16    8   23 1
    17    9   10 ar
    18    9   24 1
    19   10   11 ar
    20   10   16 1
    21   11   12 ar
    22   11   13 1
    23   12   25 1
    24   13   14 2
    25   13   15 1
@<TRIPOS>MOLECULE
ZINC01599890
   28    29     0     0     0
SMALL
USER_CHARGES
bis(4-chloro-3-nitro-phenyl)methanone
@<TRIPOS>ATOM
      1 C1          1.2012    3.0650   -1.1281 C.ar      1 <0>        -0.0316
      2 C2          2.3510    3.7942   -1.3441 C.ar      1 <0>        -0.1133
      3 C3          3.5215    3.4597   -0.6826 C.ar      1 <0>         0.0381
      4 C4          3.5434    2.3948    0.2033 C.ar      1 <0>        -0.0448
      5 C5          2.3989    1.6612    0.4323 C.ar      1 <0>         0.0114
      6 C6          1.2152    1.9935   -0.2316 C.ar      1 <0>        -0.1533
      7 C7         -0.0144    1.2115    0.0087 C.2       1 <0>         0.4462
      8 O1          0.0579    0.0192    0.2347 O.2       1 <0>        -0.4074
      9 C8         -1.3323    1.8768   -0.0316 C.ar      1 <0>        -0.1590
     10 C9         -1.4130    3.2683   -0.1281 C.ar      1 <0>        -0.0270
     11 C10        -2.6463    3.8830   -0.1706 C.ar      1 <0>        -0.1163
     12 C11        -3.8041    3.1247   -0.1067 C.ar      1 <0>         0.0422
     13 C12        -3.7307    1.7449   -0.0052 C.ar      1 <0>        -0.0484
     14 C13        -2.5036    1.1178    0.0324 C.ar      1 <0>         0.0170
     15 N1         -4.9726    0.9423    0.0626 N.pl3     1 <0>         0.0224
     16 O2         -4.9097   -0.2708    0.1514 O.2       1 <0>        -0.1479
     17 O3         -6.0575    1.4950    0.0294 O.3       1 <0>        -0.1256
     18 Cl1        -5.3532    3.9067   -0.1547 Cl        1 <0>         0.0154
     19 N2          4.7982    2.0442    0.9058 N.pl3     1 <0>         0.0223
     20 O4          4.8188    1.1084    1.6852 O.2       1 <0>        -0.1488
     21 O5          5.8101    2.6914    0.7044 O.3       1 <0>        -0.1248
     22 Cl2         4.9667    4.3792   -0.9647 Cl        1 <0>         0.0147
     23 H1          0.2904    3.3241   -1.6475 H         1 <0>         0.1641
     24 H2          2.3404    4.6255   -2.0335 H         1 <0>         0.1701
     25 H3          2.4172    0.8313    1.1232 H         1 <0>         0.1738
     26 H4         -0.5112    3.8608   -0.1739 H         1 <0>         0.1638
     27 H5         -2.7101    4.9582   -0.2497 H         1 <0>         0.1697
     28 H6         -2.4478    0.0421    0.1116 H         1 <0>         0.1767
@<TRIPOS>BOND
     1    1    6 ar
     2    1    2 ar
     3    1   23 1
     4    2    3 ar
     5    2   24 1
     6    3    4 ar
     7    3   22 1
     8    4    5 ar
     9    4   19 1
    10    5    6 ar
    11    5   25 1
    12    6    7 1
    13    7    8 2
    14    7    9 1
    15    9   14 ar
    16    9   10 ar
    17   10   11 ar
    18   10   26 1
    19   11   12 ar
    20   11   27 1
    21   12   13 ar
    22   12   18 1
    23   13   14 ar
    24   13   15 1
    25   14   28 1
    26   15   16 2
    27   15   17 1
    28   19   20 2
    29   19   21 1
@<TRIPOS>MOLECULE
ZINC03885245
   31    31     0     0     0
SMALL
USER_CHARGES

@<TRIPOS>ATOM
      1 C1         -0.0187    1.5258    0.0104 C.3       1 <0>        -0.1790
      2 C2          0.0021   -0.0041    0.0020 C.3       1 <0>         0.1052
      3 N1         -1.3723   -0.5112    0.0124 N.pl3     1 <0>        -0.9915
      4 C3         -2.1099   -0.6542   -1.2453 C.3       1 <0>         0.1158
      5 C4         -1.7727   -2.0031   -1.8836 C.3       1 <0>        -0.1754
      6 S1         -2.0922   -0.9227    1.4458 S.o2      1 <0>         2.6902
      7 O1         -3.1158   -1.8572    1.1326 O.2       1 <0>        -0.9362
      8 O2         -1.0428   -1.2191    2.3570 O.2       1 <0>        -0.9397
      9 C5         -2.8976    0.5202    2.0575 C.ar      1 <0>        -0.6829
     10 C6         -2.2149    1.3959    2.8814 C.ar      1 <0>         0.0384
     11 C7         -2.8459    2.5279    3.3610 C.ar      1 <0>        -0.1285
     12 C8         -4.1612    2.7850    3.0166 C.ar      1 <0>         0.0609
     13 C9         -4.8437    1.9085    2.1922 C.ar      1 <0>        -0.0670
     14 C10        -4.2098    0.7792    1.7088 C.ar      1 <0>         0.0560
     15 N2         -6.2505    2.1828    1.8233 N.pl3     1 <0>         0.0302
     16 O3         -6.8469    1.4167    1.1029 O.2       1 <0>        -0.1476
     17 O4         -6.8033    3.1729    2.2425 O.3       1 <0>        -0.1276
     18 Cl1        -4.9547    4.2066    3.6192 Cl        1 <0>         0.0152
     19 H1          1.0039    1.9031    0.0027 H         1 <0>         0.0758
     20 H2         -0.5459    1.8868   -0.8726 H         1 <0>         0.0635
     21 H3         -0.5289    1.8773    0.9072 H         1 <0>         0.0507
     22 H4          0.5123   -0.3556   -0.8948 H         1 <0>         0.0921
     23 H5          0.5293   -0.3651    0.8851 H         1 <0>         0.0971
     24 H6         -3.1804   -0.6037   -1.0465 H         1 <0>         0.0825
     25 H7         -1.8283    0.1500   -1.9251 H         1 <0>         0.0849
     26 H8         -2.0544   -2.8073   -1.2038 H         1 <0>         0.0652
     27 H9         -2.3215   -2.1096   -2.8194 H         1 <0>         0.0731
     28 H10        -0.7022   -2.0536   -2.0825 H         1 <0>         0.0618
     29 H11        -1.1885    1.1949    3.1505 H         1 <0>         0.1695
     30 H12        -2.3127    3.2116    4.0049 H         1 <0>         0.1698
     31 H13        -4.7411    0.0971    1.0616 H         1 <0>         0.1774
@<TRIPOS>BOND
     1    1    2 1
     2    1   19 1
     3    1   20 1
     4    1   21 1
     5    2    3 1
     6    2   22 1
     7    2   23 1
     8    3    4 1
     9    3    6 1
    10    4    5 1
    11    4   24 1
    12    4   25 1
    13    5   26 1
    14    5   27 1
    15    5   28 1
    16    6    7 2
    17    6    8 2
    18    6    9 1
    19    9   14 ar
    20    9   10 ar
    21   10   11 ar
    22   10   29 1
    23   11   12 ar
    24   11   30 1
    25   12   13 ar
    26   12   18 1
    27   13   14 ar
    28   13   15 1
    29   14   31 1
    30   15   16 2
    31   15   17 1
@<TRIPOS>MOLECULE
ZINC05336299
   26    26     0     0     0
SMALL
USER_CHARGES
methyl 4-methylsulfonyl-3-nitro-benzoate
@<TRIPOS>ATOM
      1 C1          1.2929   -0.9345   -0.7074 C.3       1 <0>         0.0359
      2 O1          0.3251    0.1317   -0.5207 O.3       1 <0>        -0.3490
      3 C2         -0.9207   -0.2300   -0.1573 C.2       1 <0>         0.5071
      4 O2         -1.1910   -1.4038   -0.0007 O.2       1 <0>        -0.4799
      5 C3         -1.9596    0.8006    0.0448 C.ar      1 <0>        -0.0737
      6 C4         -1.6507    2.1514   -0.1288 C.ar      1 <0>        -0.0298
      7 C5         -2.6270    3.1080    0.0560 C.ar      1 <0>        -0.0269
      8 C6         -3.9071    2.7326    0.4242 C.ar      1 <0>        -0.5866
      9 C7         -4.2185    1.3966    0.6033 C.ar      1 <0>         0.0268
     10 C8         -3.2531    0.4289    0.4158 C.ar      1 <0>        -0.0082
     11 N1         -5.5904    1.0045    0.9967 N.pl3     1 <0>         0.0120
     12 O3         -5.8357   -0.1552    1.2768 O.2       1 <0>        -0.1160
     13 O4         -6.4742    1.8415    1.0402 O.3       1 <0>        -0.1413
     14 S1         -5.1463    3.9619    0.6653 S.o2      1 <0>         2.4969
     15 O5         -5.7284    3.6481    1.9230 O.2       1 <0>        -0.9019
     16 O6         -4.4743    5.1980    0.4662 O.2       1 <0>        -0.9283
     17 C9         -6.3462    3.6815   -0.6659 C.3       1 <0>        -0.6342
     18 H1          2.2527   -0.5072   -0.9979 H         1 <0>         0.1111
     19 H2          1.4087   -1.4875    0.2247 H         1 <0>         0.0701
     20 H3          0.9440   -1.6091   -1.4892 H         1 <0>         0.0699
     21 H4         -0.6509    2.4460   -0.4114 H         1 <0>         0.1721
     22 H5         -2.3907    4.1527   -0.0826 H         1 <0>         0.1814
     23 H6         -3.4975   -0.6137    0.5560 H         1 <0>         0.1787
     24 H7         -6.6047    2.6233   -0.7052 H         1 <0>         0.1372
     25 H8         -7.2448    4.2681   -0.4746 H         1 <0>         0.1474
     26 H9         -5.9103    3.9846   -1.6179 H         1 <0>         0.1293
@<TRIPOS>BOND
     1    1    2 1
     2    1   18 1
     3    1   19 1
     4    1   20 1
     5    2    3 1
     6    3    4 2
     7    3    5 1
     8    5   10 ar
     9    5    6 ar
    10    6    7 ar
    11    6   21 1
    12    7    8 ar
    13    7   22 1
    14    8    9 ar
    15    8   14 1
    16    9   10 ar
    17    9   11 1
    18   10   23 1
    19   11   12 2
    20   11   13 1
    21   14   15 2
    22   14   16 2
    23   14   17 1
    24   17   24 1
    25   17   25 1
    26   17   26 1
