@<TRIPOS>MOLECULE
ZINC03924790
   74    76     0     0     0
SMALL
USER_CHARGES

@<TRIPOS>ATOM
      1 C1         -0.2768    0.9131   -0.1144 C.3       1 <0>        -0.1576
      2 C2          0.0766   -0.5716   -0.0062 C.3       1 <0>        -0.0824
      3 H1          0.6700   -0.8678   -0.8712 H         1 <0>         0.0747
      4 C3         -1.2090   -1.4000    0.0381 C.3       1 <0>        -0.1164
      5 C4         -1.9539   -1.2570   -1.2906 C.3       1 <0>        -0.1177
      6 C5         -3.2395   -2.0854   -1.2462 C.3       1 <0>        -0.1445
      7 C6         -3.9845   -1.9424   -2.5749 C.3       1 <0>         0.1248
      8 C7         -3.0947   -2.4424   -3.7148 C.3       1 <0>        -0.1420
      9 C8         -5.2701   -2.7708   -2.5306 C.3       1 <0>        -0.1801
     10 O1         -4.3105   -0.5683   -2.7928 O.3       1 <0>        -0.5592
     11 C9          0.8827   -0.8122    1.2718 C.3       1 <0>        -0.0714
     12 H2          0.2964   -0.5317    2.1468 H         1 <0>         0.0705
     13 C10         1.3128   -2.2995    1.3655 C.3       1 <0>        -0.1188
     14 C11         2.8636   -2.2994    1.4782 C.3       1 <0>        -0.1165
     15 C12         3.1605   -0.9132    2.0549 C.3       1 <0>        -0.0597
     16 H3          2.9173   -0.8768    3.1168 H         1 <0>         0.0836
     17 C13         2.1829   -0.0244    1.2324 C.3       1 <0>        -0.0506
     18 C14         2.2015    1.3600    1.8373 C.3       1 <0>        -0.1080
     19 C15         3.5883    1.9665    1.5650 C.3       1 <0>        -0.1187
     20 C16         4.7064    1.1167    2.1657 C.3       1 <0>        -0.0899
     21 C17         4.5320   -0.3598    1.8060 C.2       1 <0>        -0.0822
     22 C18         5.5192   -1.0988    1.3001 C.2       1 <0>        -0.1498
     23 C19         6.8394   -0.5043    1.0783 C.2       1 <0>        -0.1087
     24 C20         7.8385   -1.2523    0.5663 C.2       1 <0>        -0.0828
     25 C21         9.2201   -0.6764    0.3277 C.3       1 <0>        -0.1117
     26 C22         9.6812   -1.0925   -1.0728 C.3       1 <0>         0.1118
     27 H4          9.0062   -0.6699   -1.8170 H         1 <0>         0.0672
     28 C23         9.6752   -2.6173   -1.1885 C.3       1 <0>        -0.1050
     29 C24         8.2372   -3.1388   -1.1015 C.3       1 <0>         0.1475
     30 H5          8.2389   -4.2281   -1.1380 H         1 <0>         0.0689
     31 C25         7.6406   -2.6744    0.2166 C.2       1 <0>        -0.1255
     32 C26         6.9710   -3.5040    1.0166 C.2       1 <0>        -0.1653
     33 O2          7.4709   -2.6219   -2.1913 O.3       1 <0>        -0.5543
     34 O3         11.0050   -0.6053   -1.3013 O.3       1 <0>        -0.5687
     35 C27         2.6778    0.0616   -0.2128 C.3       1 <0>        -0.1519
     36 H6          0.6390    1.5032   -0.1460 H         1 <0>         0.0644
     37 H7         -0.8511    1.0844   -1.0249 H         1 <0>         0.0555
     38 H8         -0.8703    1.2093    0.7506 H         1 <0>         0.0514
     39 H9         -0.9603   -2.4481    0.2043 H         1 <0>         0.0610
     40 H10        -1.8429   -1.0438    0.8502 H         1 <0>         0.0578
     41 H11        -2.2027   -0.2089   -1.4567 H         1 <0>         0.0704
     42 H12        -1.3201   -1.6132   -2.1026 H         1 <0>         0.0626
     43 H13        -2.9908   -3.1336   -1.0800 H         1 <0>         0.0690
     44 H14        -3.8734   -1.7292   -0.4341 H         1 <0>         0.0625
     45 H15        -2.8460   -3.4905   -3.5486 H         1 <0>         0.0682
     46 H16        -3.6254   -2.3405   -4.6614 H         1 <0>         0.0606
     47 H17        -2.1789   -1.8522   -3.7464 H         1 <0>         0.0659
     48 H18        -5.9039   -2.4146   -1.7185 H         1 <0>         0.0571
     49 H19        -5.8008   -2.6690   -3.4772 H         1 <0>         0.0634
     50 H20        -5.0214   -3.8190   -2.3644 H         1 <0>         0.0650
     51 H21        -4.8739   -0.1843   -2.1071 H         1 <0>         0.3741
     52 H22         0.8733   -2.7613    2.2496 H         1 <0>         0.0620
     53 H23         1.0027   -2.8361    0.4689 H         1 <0>         0.0667
     54 H24         3.2015   -3.0812    2.1585 H         1 <0>         0.0629
     55 H25         3.3223   -2.4155    0.4963 H         1 <0>         0.0702
     56 H26         1.4308    1.9763    1.3745 H         1 <0>         0.0708
     57 H27         2.0299    1.2965    2.9118 H         1 <0>         0.0616
     58 H28         3.7382    2.0409    0.4879 H         1 <0>         0.0684
     59 H29         3.6301    2.9660    1.9980 H         1 <0>         0.0615
     60 H30         5.6665    1.4673    1.7871 H         1 <0>         0.0702
     61 H31         4.6906    1.2178    3.2509 H         1 <0>         0.0696
     62 H32         5.3457   -2.1359    1.0538 H         1 <0>         0.1268
     63 H33         7.0129    0.5328    1.3246 H         1 <0>         0.1190
     64 H34         9.1810    0.4109    0.3935 H         1 <0>         0.0725
     65 H35         9.9137   -1.0651    1.0733 H         1 <0>         0.0822
     66 H36        10.1094   -2.9098   -2.1445 H         1 <0>         0.0814
     67 H37        10.2652   -3.0445   -0.3778 H         1 <0>         0.0836
     68 H38         6.5576   -3.1415    1.9462 H         1 <0>         0.1117
     69 H39         6.8418   -4.5387    0.7353 H         1 <0>         0.1052
     70 H40         6.5489   -2.9133   -2.1969 H         1 <0>         0.3793
     71 H41        11.0846    0.3569   -1.2483 H         1 <0>         0.3793
     72 H42         2.0012    0.6902   -0.7918 H         1 <0>         0.0613
     73 H43         3.6784    0.4936   -0.2292 H         1 <0>         0.0618
     74 H44         2.7064   -0.9377   -0.6472 H         1 <0>         0.0536
@<TRIPOS>BOND
     1    1    2 1
     2    1   36 1
     3    1   37 1
     4    1   38 1
     5    2    3 1
     6    2    4 1
     7    2   11 1
     8    4    5 1
     9    4   39 1
    10    4   40 1
    11    5    6 1
    12    5   41 1
    13    5   42 1
    14    6    7 1
    15    6   43 1
    16    6   44 1
    17    7    8 1
    18    7    9 1
    19    7   10 1
    20    8   45 1
    21    8   46 1
    22    8   47 1
    23    9   48 1
    24    9   49 1
    25    9   50 1
    26   10   51 1
    27   11   12 1
    28   11   17 1
    29   11   13 1
    30   13   14 1
    31   13   52 1
    32   13   53 1
    33   14   15 1
    34   14   54 1
    35   14   55 1
    36   15   16 1
    37   15   21 1
    38   15   17 1
    39   17   18 1
    40   17   35 1
    41   18   19 1
    42   18   56 1
    43   18   57 1
    44   19   20 1
    45   19   58 1
    46   19   59 1
    47   20   21 1
    48   20   60 1
    49   20   61 1
    50   21   22 2
    51   22   23 1
    52   22   62 1
    53   23   24 2
    54   23   63 1
    55   24   31 1
    56   24   25 1
    57   25   26 1
    58   25   64 1
    59   25   65 1
    60   26   27 1
    61   26   28 1
    62   26   34 1
    63   28   29 1
    64   28   66 1
    65   28   67 1
    66   29   30 1
    67   29   31 1
    68   29   33 1
    69   31   32 2
    70   32   68 1
    71   32   69 1
    72   33   70 1
    73   34   71 1
    74   35   72 1
    75   35   73 1
    76   35   74 1
@<TRIPOS>MOLECULE
ZINC03924790
   74    76     0     0     0
SMALL
USER_CHARGES

@<TRIPOS>ATOM
      1 C1         -0.0946    0.4052   -0.8712 C.3       1 <0>        -0.1577
      2 C2          0.2555   -1.0699   -0.6649 C.3       1 <0>        -0.0825
      3 H1          0.9622   -1.3863   -1.4320 H         1 <0>         0.0747
      4 C3         -1.0164   -1.9145   -0.7636 C.3       1 <0>        -0.1164
      5 C4         -1.5781   -1.8267   -2.1840 C.3       1 <0>        -0.1176
      6 C5         -2.8500   -2.6713   -2.2827 C.3       1 <0>        -0.1444
      7 C6         -3.4116   -2.5834   -3.7032 C.3       1 <0>         0.1249
      8 C7         -2.3725   -3.1084   -4.6959 C.3       1 <0>        -0.1420
      9 C8         -4.6835   -3.4281   -3.8019 C.3       1 <0>        -0.1801
     10 O1         -3.7188   -1.2221   -4.0106 O.3       1 <0>        -0.5593
     11 C9          0.8854   -1.2561    0.7169 C.3       1 <0>        -0.0707
     12 H2          0.1846   -0.9550    1.4955 H         1 <0>         0.0706
     13 C10         1.3135   -2.7332    0.9192 C.3       1 <0>        -0.1237
     14 C11         2.8352   -2.7073    1.2379 C.3       1 <0>        -0.1188
     15 C12         3.0387   -1.2985    1.8002 C.3       1 <0>        -0.0592
     16 H3          2.6552   -1.2302    2.8182 H         1 <0>         0.0818
     17 C13         2.1716   -0.4517    0.8239 C.3       1 <0>        -0.0490
     18 C14         2.0956    0.9522    1.3770 C.3       1 <0>        -0.1079
     19 C15         3.5005    1.5691    1.2713 C.3       1 <0>        -0.1214
     20 C16         4.5362    0.7558    2.0452 C.3       1 <0>        -0.0830
     21 C17         4.4258   -0.7342    1.7174 C.2       1 <0>        -0.0880
     22 C18         5.4790   -1.4756    1.3740 C.2       1 <0>        -0.1441
     23 C19         5.3705   -2.9361    1.3517 C.2       1 <0>        -0.1274
     24 C20         6.3920   -3.6812    0.8815 C.2       1 <0>        -0.0905
     25 C21         6.3164   -5.1943    0.8358 C.3       1 <0>        -0.1096
     26 C22         7.6223   -5.7602    1.4029 C.3       1 <0>         0.1114
     27 H4          7.7254   -5.4586    2.4453 H         1 <0>         0.0668
     28 C23         8.8097   -5.2277    0.5999 C.3       1 <0>        -0.1046
     29 C24         8.9401   -3.7153    0.8071 C.3       1 <0>         0.1471
     30 H5          9.7581   -3.3304    0.1982 H         1 <0>         0.0680
     31 C25         7.6365   -3.0614    0.3805 C.2       1 <0>        -0.1249
     32 C26         7.6138   -1.9834   -0.4031 C.2       1 <0>        -0.1664
     33 O2          9.1947   -3.4385    2.1857 O.3       1 <0>        -0.5548
     34 O3          7.5969   -7.1867    1.3214 O.3       1 <0>        -0.5690
     35 C27         2.8547   -0.4070   -0.5444 C.3       1 <0>        -0.1558
     36 H6          0.8115    1.0069   -0.8009 H         1 <0>         0.0643
     37 H7         -0.5434    0.5378   -1.8556 H         1 <0>         0.0555
     38 H8         -0.8013    0.7216   -0.1040 H         1 <0>         0.0517
     39 H9         -0.7821   -2.9529   -0.5291 H         1 <0>         0.0611
     40 H10        -1.7568   -1.5405   -0.0564 H         1 <0>         0.0579
     41 H11        -1.8124   -0.7883   -2.4185 H         1 <0>         0.0703
     42 H12        -0.8378   -2.2007   -2.8912 H         1 <0>         0.0625
     43 H13        -2.6157   -3.7097   -2.0483 H         1 <0>         0.0690
     44 H14        -3.5903   -2.2973   -1.5755 H         1 <0>         0.0626
     45 H15        -2.1382   -4.1468   -4.4614 H         1 <0>         0.0682
     46 H16        -2.7726   -3.0458   -5.7078 H         1 <0>         0.0606
     47 H17        -1.4664   -2.5067   -4.6256 H         1 <0>         0.0658
     48 H18        -5.4239   -3.0541   -3.0947 H         1 <0>         0.0572
     49 H19        -5.0837   -3.3655   -4.8138 H         1 <0>         0.0634
     50 H20        -4.4492   -4.4665   -3.5674 H         1 <0>         0.0651
     51 H21        -4.3726   -0.8234   -3.4200 H         1 <0>         0.3741
     52 H22         0.7640   -3.1714    1.7524 H         1 <0>         0.0620
     53 H23         1.1314   -3.3038    0.0086 H         1 <0>         0.0670
     54 H24         3.0864   -3.4610    1.9841 H         1 <0>         0.0696
     55 H25         3.4223   -2.8496    0.3306 H         1 <0>         0.0801
     56 H26         1.3879    1.5417    0.7942 H         1 <0>         0.0709
     57 H27         1.7823    0.9223    2.4206 H         1 <0>         0.0620
     58 H28         3.7926    1.6096    0.2220 H         1 <0>         0.0691
     59 H29         3.4743    2.5829    1.6707 H         1 <0>         0.0616
     60 H30         5.5350    1.1071    1.7862 H         1 <0>         0.0660
     61 H31         4.3742    0.8929    3.1144 H         1 <0>         0.0731
     62 H32         6.4123   -0.9994    1.1122 H         1 <0>         0.1185
     63 H33         4.4726   -3.4164    1.7116 H         1 <0>         0.1461
     64 H34         5.4752   -5.5383    1.4377 H         1 <0>         0.0716
     65 H35         6.1902   -5.5247   -0.1952 H         1 <0>         0.0810
     66 H36         9.7232   -5.7193    0.9345 H         1 <0>         0.0807
     67 H37         8.6540   -5.4362   -0.4586 H         1 <0>         0.0832
     68 H38         6.6699   -1.5416   -0.6865 H         1 <0>         0.1104
     69 H39         8.5392   -1.5516   -0.7545 H         1 <0>         0.1038
     70 H40         9.2883   -2.4974    2.3872 H         1 <0>         0.3794
     71 H41         6.8711   -7.5958    1.8123 H         1 <0>         0.3789
     72 H42         2.2023    0.0934   -1.2600 H         1 <0>         0.0634
     73 H43         3.7937    0.1407   -0.4640 H         1 <0>         0.0615
     74 H44         3.0548   -1.4232   -0.8840 H         1 <0>         0.0542
@<TRIPOS>BOND
     1    1    2 1
     2    1   36 1
     3    1   37 1
     4    1   38 1
     5    2    3 1
     6    2    4 1
     7    2   11 1
     8    4    5 1
     9    4   39 1
    10    4   40 1
    11    5    6 1
    12    5   41 1
    13    5   42 1
    14    6    7 1
    15    6   43 1
    16    6   44 1
    17    7    8 1
    18    7    9 1
    19    7   10 1
    20    8   45 1
    21    8   46 1
    22    8   47 1
    23    9   48 1
    24    9   49 1
    25    9   50 1
    26   10   51 1
    27   11   12 1
    28   11   17 1
    29   11   13 1
    30   13   14 1
    31   13   52 1
    32   13   53 1
    33   14   15 1
    34   14   54 1
    35   14   55 1
    36   15   16 1
    37   15   21 1
    38   15   17 1
    39   17   18 1
    40   17   35 1
    41   18   19 1
    42   18   56 1
    43   18   57 1
    44   19   20 1
    45   19   58 1
    46   19   59 1
    47   20   21 1
    48   20   60 1
    49   20   61 1
    50   21   22 2
    51   22   23 1
    52   22   62 1
    53   23   24 2
    54   23   63 1
    55   24   31 1
    56   24   25 1
    57   25   26 1
    58   25   64 1
    59   25   65 1
    60   26   27 1
    61   26   28 1
    62   26   34 1
    63   28   29 1
    64   28   66 1
    65   28   67 1
    66   29   30 1
    67   29   31 1
    68   29   33 1
    69   31   32 2
    70   32   68 1
    71   32   69 1
    72   33   70 1
    73   34   71 1
    74   35   72 1
    75   35   73 1
    76   35   74 1
