@<TRIPOS>MOLECULE
ZINC06614834
   22    23     0     0     0
SMALL
USER_CHARGES
N-(5-methylthiazol-2-yl)pyridin-2-amine
@<TRIPOS>ATOM
      1 C1          8.6903    0.9588   -0.5262 C.3       1 <0>        -0.0579
      2 C2          7.2084    0.7249   -0.3841 C.2       1 <0>        -0.2078
      3 C3          6.1982    1.6213   -0.2774 C.2       1 <0>         0.0566
      4 N1          4.9646    1.1681   -0.1615 N.2       1 <0>        -0.5097
      5 C4          4.7112   -0.1266   -0.1488 C.2       1 <0>         0.3195
      6 S1          6.2996   -0.8114   -0.3021 S.3       1 <0>         0.0286
      7 N2          3.4896   -0.7749   -0.0359 N.pl3     1 <0>        -0.6021
      8 C5          2.3095   -0.0378   -0.0226 C.ar      1 <0>         0.3709
      9 C6          1.0846   -0.6975   -0.0189 C.ar      1 <0>        -0.2108
     10 C7         -0.0805    0.0475   -0.0052 C.ar      1 <0>        -0.0433
     11 C8          0.0186    1.4328    0.0043 C.ar      1 <0>        -0.2092
     12 C9          1.2673    2.0213   -0.0001 C.ar      1 <0>         0.1384
     13 N3          2.3623    1.2852   -0.0132 N.ar      1 <0>        -0.4788
     14 H1          9.1472    1.0057    0.4623 H         1 <0>         0.0762
     15 H2          9.1346    0.1409   -1.0933 H         1 <0>         0.0718
     16 H3          8.8611    1.8992   -1.0503 H         1 <0>         0.0834
     17 H4          6.3981    2.6826   -0.2873 H         1 <0>         0.1689
     18 H5          3.4582   -1.7418    0.0338 H         1 <0>         0.4354
     19 H6          1.0442   -1.7767   -0.0265 H         1 <0>         0.1357
     20 H7         -1.0458   -0.4370   -0.0023 H         1 <0>         0.1389
     21 H8         -0.8721    2.0433    0.0196 H         1 <0>         0.1364
     22 H9          1.3490    3.0982    0.0076 H         1 <0>         0.1592
@<TRIPOS>BOND
     1    1    2 1
     2    1   14 1
     3    1   15 1
     4    1   16 1
     5    2    6 1
     6    2    3 2
     7    3    4 1
     8    3   17 1
     9    4    5 2
    10    5    6 1
    11    5    7 1
    12    7    8 1
    13    7   18 1
    14    8   13 ar
    15    8    9 ar
    16    9   10 ar
    17    9   19 1
    18   10   11 ar
    19   10   20 1
    20   11   12 ar
    21   11   21 1
    22   12   13 ar
    23   12   22 1
@<TRIPOS>MOLECULE
ZINC00007460
   40    43     0     0     0
SMALL
USER_CHARGES

@<TRIPOS>ATOM
      1 C1          0.0099    1.3100   -0.6665 C.ar      1 <0>        -0.0873
      2 C2          1.1932    2.0449   -0.6736 C.ar      1 <0>        -0.1031
      3 C3          2.3989    1.4389   -0.4755 C.ar      1 <0>        -0.0878
      4 C4          2.4464    0.0575   -0.2619 C.ar      1 <0>        -0.1050
      5 C5          1.2413   -0.6922   -0.2545 C.ar      1 <0>        -0.0366
      6 C6          0.0201   -0.0377   -0.4614 C.ar      1 <0>        -0.1000
      7 C7          1.3338   -2.0791   -0.0357 C.ar      1 <0>         0.0670
      8 N1          2.5164   -2.6188    0.1508 N.ar      1 <0>        -0.2122
      9 N2          3.6082   -1.9490    0.1455 N.ar      1 <0>        -0.3148
     10 C8          3.6557   -0.6424   -0.0488 C.ar      1 <0>         0.3624
     11 N3          4.8682    0.0284   -0.0441 N.pl3     1 <0>        -0.6425
     12 C9          6.0641   -0.6900    0.0467 C.ar      1 <0>         0.1605
     13 C10         6.1747   -1.9364   -0.5565 C.ar      1 <0>        -0.1016
     14 C11         7.3572   -2.6438   -0.4652 C.ar      1 <0>        -0.0857
     15 C12         8.4313   -2.1122    0.2268 C.ar      1 <0>        -0.0509
     16 C13         8.3240   -0.8708    0.8288 C.ar      1 <0>        -0.0880
     17 C14         7.1459   -0.1562    0.7354 C.ar      1 <0>        -0.1365
     18 Cl1         9.9160   -3.0048    0.3406 Cl        1 <0>        -0.0690
     19 C15         0.0926   -2.9335   -0.0150 C.3       1 <0>        -0.0232
     20 C16        -0.1981   -3.4309   -1.4076 C.ar      1 <0>        -0.0363
     21 C17        -0.9979   -2.6976   -2.2706 C.ar      1 <0>        -0.1703
     22 C18        -1.2425   -3.1855   -3.5404 C.ar      1 <0>         0.0995
     23 N4         -0.7257   -4.3333   -3.9331 N.ar      1 <0>        -0.4856
     24 C19         0.0392   -5.0571   -3.1393 C.ar      1 <0>         0.1005
     25 C20         0.3326   -4.6300   -1.8581 C.ar      1 <0>        -0.1573
     26 H1         -0.9311    1.8168   -0.8216 H         1 <0>         0.1364
     27 H2          1.1553    3.1115   -0.8389 H         1 <0>         0.1355
     28 H3          3.3089    2.0205   -0.4838 H         1 <0>         0.1315
     29 H4         -0.9047   -0.5955   -0.4580 H         1 <0>         0.1411
     30 H5          4.8872    0.9963   -0.1038 H         1 <0>         0.4199
     31 H6          5.3365   -2.3519   -1.0962 H         1 <0>         0.1422
     32 H7          7.4438   -3.6128   -0.9340 H         1 <0>         0.1376
     33 H8          9.1638   -0.4583    1.3683 H         1 <0>         0.1380
     34 H9          7.0641    0.8146    1.2016 H         1 <0>         0.1341
     35 H10         0.2476   -3.7836    0.6494 H         1 <0>         0.1044
     36 H11        -0.7500   -2.3417    0.3426 H         1 <0>         0.0975
     37 H12        -1.4246   -1.7571   -1.9546 H         1 <0>         0.1331
     38 H13        -1.8645   -2.6203   -4.2187 H         1 <0>         0.1558
     39 H14         0.4444   -5.9925   -3.4961 H         1 <0>         0.1573
     40 H15         0.9637   -5.2248   -1.2145 H         1 <0>         0.1397
@<TRIPOS>BOND
     1    1    6 ar
     2    1    2 ar
     3    1   26 1
     4    2    3 ar
     5    2   27 1
     6    3    4 ar
     7    3   28 1
     8    4   10 ar
     9    4    5 ar
    10    5    6 ar
    11    5    7 ar
    12    6   29 1
    13    7    8 ar
    14    7   19 1
    15    8    9 ar
    16    9   10 ar
    17   10   11 1
    18   11   12 1
    19   11   30 1
    20   12   17 ar
    21   12   13 ar
    22   13   14 ar
    23   13   31 1
    24   14   15 ar
    25   14   32 1
    26   15   16 ar
    27   15   18 1
    28   16   17 ar
    29   16   33 1
    30   17   34 1
    31   19   20 1
    32   19   35 1
    33   19   36 1
    34   20   25 ar
    35   20   21 ar
    36   21   22 ar
    37   21   37 1
    38   22   23 ar
    39   22   38 1
    40   23   24 ar
    41   24   25 ar
    42   24   39 1
    43   25   40 1
@<TRIPOS>MOLECULE
ZINC00008732
   40    42     0     0     0
SMALL
USER_CHARGES
N-(4-chlorophenyl)-2-(4-pyridylmethylamino)benzamide
@<TRIPOS>ATOM
      1 C1          3.5646    3.1023    0.0107 C.ar      1 <0>        -0.1892
      2 C2          2.3520    3.7686   -0.0720 C.ar      1 <0>        -0.0339
      3 C3          1.1659    3.0639   -0.0690 C.ar      1 <0>        -0.2116
      4 C4          1.1804    1.6771    0.0169 C.ar      1 <0>         0.2828
      5 C5          2.4065    0.9998    0.1057 C.ar      1 <0>        -0.2339
      6 C6          3.5992    1.7280    0.0970 C.ar      1 <0>        -0.0330
      7 C7          2.4361   -0.4707    0.2035 C.2       1 <0>         0.5767
      8 O1          1.4043   -1.1074    0.1076 O.2       1 <0>        -0.5323
      9 N1          3.6065   -1.1097    0.3992 N.am      1 <0>        -0.6684
     10 C8          3.6486   -2.5081    0.3987 C.ar      1 <0>         0.1494
     11 C9          2.5872   -3.2362    0.9202 C.ar      1 <0>        -0.1076
     12 C10         2.6286   -4.6166    0.9129 C.ar      1 <0>        -0.0910
     13 C11         3.7319   -5.2742    0.3978 C.ar      1 <0>        -0.0490
     14 C12         4.7935   -4.5511   -0.1173 C.ar      1 <0>        -0.0904
     15 C13         4.7545   -3.1706   -0.1180 C.ar      1 <0>        -0.1323
     16 Cl1         3.7842   -7.0095    0.3972 Cl        1 <0>        -0.0683
     17 N2         -0.0121    0.9654    0.0206 N.pl3     1 <0>        -0.7212
     18 C14        -1.2911    1.6793    0.0525 C.3       1 <0>         0.1556
     19 C15        -2.4224    0.6838    0.0431 C.ar      1 <0>        -0.0625
     20 C16        -2.9734    0.2467   -1.1518 C.ar      1 <0>        -0.1534
     21 C17        -4.0071   -0.6701   -1.1212 C.ar      1 <0>         0.0997
     22 N3         -4.4752   -1.1208    0.0263 N.ar      1 <0>        -0.4787
     23 C18        -3.9788   -0.7239    1.1816 C.ar      1 <0>         0.0996
     24 C19        -2.9409    0.1875    1.2294 C.ar      1 <0>        -0.1533
     25 H1          4.4872    3.6637    0.0079 H         1 <0>         0.1272
     26 H2          2.3355    4.8464   -0.1390 H         1 <0>         0.1283
     27 H3          0.2253    3.5906   -0.1331 H         1 <0>         0.1295
     28 H4          4.5469    1.2141    0.1616 H         1 <0>         0.1235
     29 H5          4.4196   -0.6000    0.5403 H         1 <0>         0.4134
     30 H6          1.7281   -2.7234    1.3271 H         1 <0>         0.1473
     31 H7          1.8012   -5.1834    1.3136 H         1 <0>         0.1372
     32 H8          5.6530   -5.0668   -0.5193 H         1 <0>         0.1387
     33 H9          5.5830   -2.6067   -0.5204 H         1 <0>         0.1362
     34 H10         0.0016   -0.0042   -0.0019 H         1 <0>         0.4212
     35 H11        -1.3470    2.2844    0.9574 H         1 <0>         0.0767
     36 H12        -1.3684    2.3254   -0.8220 H         1 <0>         0.0764
     37 H13        -2.5973    0.6156   -2.0946 H         1 <0>         0.1366
     38 H14        -4.4395   -1.0181   -2.0477 H         1 <0>         0.1588
     39 H15        -4.3882   -1.1152    2.1012 H         1 <0>         0.1587
     40 H16        -2.5390    0.5092    2.1788 H         1 <0>         0.1364
@<TRIPOS>BOND
     1    1    6 ar
     2    1    2 ar
     3    1   25 1
     4    2    3 ar
     5    2   26 1
     6    3    4 ar
     7    3   27 1
     8    4    5 ar
     9    4   17 1
    10    5    6 ar
    11    5    7 1
    12    6   28 1
    13    7    8 2
    14    7    9 am
    15    9   10 1
    16    9   29 1
    17   10   15 ar
    18   10   11 ar
    19   11   12 ar
    20   11   30 1
    21   12   13 ar
    22   12   31 1
    23   13   14 ar
    24   13   16 1
    25   14   15 ar
    26   14   32 1
    27   15   33 1
    28   17   18 1
    29   17   34 1
    30   18   19 1
    31   18   35 1
    32   18   36 1
    33   19   24 ar
    34   19   20 ar
    35   20   21 ar
    36   20   37 1
    37   21   22 ar
    38   21   38 1
    39   22   23 ar
    40   23   24 ar
    41   23   39 1
    42   24   40 1
@<TRIPOS>MOLECULE
ZINC31262374
   26    28     0     0     0
SMALL
USER_CHARGES
(3E)-3-(1H-pyrrol-2-ylmethylene)indolin-2-one
@<TRIPOS>ATOM
      1 C1          2.8632    5.7907    0.0934 C.ar      1 <0>        -0.1308
      2 C2          2.9460    7.1677    0.2178 C.ar      1 <0>        -0.0890
      3 C3          1.8031    7.9357    0.3086 C.ar      1 <0>        -0.1290
      4 C4          0.5514    7.3306    0.2757 C.ar      1 <0>         0.1403
      5 C5          0.4717    5.9370    0.1497 C.ar      1 <0>        -0.0979
      6 C6          1.6301    5.1719    0.0590 C.ar      1 <0>        -0.1236
      7 C7         -0.9693    5.6006    0.1449 C.2       1 <0>        -0.2352
      8 C8         -1.5392    4.3462    0.0397 C.2       1 <0>         0.0941
      9 C9         -0.8354    3.2117    0.4939 C.2       1 <0>        -0.0290
     10 C10        -1.2107    1.8886    0.3184 C.2       1 <0>        -0.1185
     11 C11        -0.2313    1.1012    0.9266 C.2       1 <0>        -0.2146
     12 C12         0.7098    1.9297    1.4439 C.2       1 <0>         0.0444
     13 N1          0.3553    3.2142    1.1882 N.pl3     1 <0>        -0.5569
     14 H1          0.8447    4.1673    1.4373 H         1 <0>         0.4516
     15 C13        -1.6627    6.8891    0.2695 C.2       1 <0>         0.5695
     16 O1         -2.8696    7.0524    0.3006 O.2       1 <0>        -0.5120
     17 N2         -0.7328    7.8561    0.3469 N.am      1 <0>        -0.6661
     18 H2          3.7649    5.2004    0.0232 H         1 <0>         0.1309
     19 H3          3.9145    7.6450    0.2444 H         1 <0>         0.1328
     20 H4          1.8807    9.0086    0.4049 H         1 <0>         0.1298
     21 H5          1.5647    4.0982   -0.0377 H         1 <0>         0.1426
     22 H6         -2.5418    4.2326   -0.3983 H         1 <0>         0.1599
     23 H7         -2.0948    1.5341   -0.1906 H         1 <0>         0.1470
     24 H8         -0.2223    0.0222    0.9730 H         1 <0>         0.1450
     25 H9          1.5977    1.6174    1.9736 H         1 <0>         0.1716
     26 H10        -0.8779    8.9413    0.4531 H         1 <0>         0.4431
@<TRIPOS>BOND
     1    1    6 ar
     2    1    2 ar
     3    1   18 1
     4    2    3 ar
     5    2   19 1
     6    3    4 ar
     7    3   20 1
     8    4   17 1
     9    4    5 ar
    10    5    6 ar
    11    5    7 1
    12    6   21 1
    13    7    8 2
    14    7   15 1
    15    8    9 1
    16    8   22 1
    17    9   13 1
    18    9   10 2
    19   10   11 1
    20   10   23 1
    21   11   12 2
    22   11   24 1
    23   12   13 1
    24   12   25 1
    25   13   14 1
    26   15   16 2
    27   15   17 am
    28   17   26 1
@<TRIPOS>MOLECULE
ZINC24044436
   76    80     0     0     0
SMALL
USER_CHARGES
1-[5-tert-butyl-2-(p-tolyl)pyrazol-3-yl]-3-[4-(2-morpholinoethoxy)-1-naphthyl]urea
@<TRIPOS>ATOM
      1 C1          3.3307    9.5387   -0.3298 C.3       1 <0>        -0.1193
      2 C2          2.0898    8.6848   -0.2813 C.ar      1 <0>        -0.0892
      3 C3          0.9612    9.0673   -0.9828 C.ar      1 <0>        -0.0934
      4 C4         -0.1775    8.2868   -0.9403 C.ar      1 <0>        -0.1062
      5 C5         -0.1884    7.1174   -0.1919 C.ar      1 <0>         0.1564
      6 C6          0.9444    6.7392    0.5163 C.ar      1 <0>        -0.1500
      7 C7          2.0821    7.5207    0.4649 C.ar      1 <0>        -0.0924
      8 N1         -1.3424    6.3233   -0.1469 N.pl3     1 <0>        -0.3448
      9 C8         -1.3788    4.9645   -0.0790 C.2       1 <0>         0.3309
     10 C9         -2.6878    4.5925   -0.0483 C.2       1 <0>        -0.2629
     11 C10        -3.4651    5.7529   -0.1047 C.2       1 <0>         0.1115
     12 N2         -2.6643    6.7861   -0.1672 N.2       1 <0>        -0.2779
     13 C11        -4.9712    5.8052   -0.0954 C.3       1 <0>         0.0134
     14 C12        -5.4824    5.5257    1.3193 C.3       1 <0>        -0.1388
     15 C13        -5.4360    7.1933   -0.5406 C.3       1 <0>        -0.1390
     16 C14        -5.5242    4.7499   -1.0553 C.3       1 <0>        -0.1399
     17 N3         -0.2771    4.1104   -0.0417 N.am      1 <0>        -0.6731
     18 C15        -0.4603    2.7771    0.0314 C.2       1 <0>         0.7165
     19 O1         -1.5862    2.3190    0.0649 O.2       1 <0>        -0.5445
     20 N4          0.6045    1.9516    0.0675 N.am      1 <0>        -0.6819
     21 C16         0.4162    0.5655    0.0407 C.ar      1 <0>         0.1254
     22 C17        -0.6813    0.0024    0.6542 C.ar      1 <0>        -0.0743
     23 C18        -0.8835   -1.3742    0.6299 C.ar      1 <0>        -0.2061
     24 C19         0.0048   -2.2051    0.0082 C.ar      1 <0>         0.1395
     25 C20         1.1426   -1.6672   -0.6254 C.ar      1 <0>        -0.0565
     26 C21         1.3517   -0.2661   -0.6096 C.ar      1 <0>        -0.0251
     27 C22         2.4862    0.2686   -1.2409 C.ar      1 <0>        -0.1232
     28 C23         3.3687   -0.5639   -1.8588 C.ar      1 <0>        -0.0971
     29 C24         3.1636   -1.9422   -1.8742 C.ar      1 <0>        -0.1313
     30 C25         2.0750   -2.4951   -1.2724 C.ar      1 <0>        -0.0739
     31 O2         -0.2080   -3.5475    0.0012 O.3       1 <0>        -0.2916
     32 C26        -1.3823   -4.0216    0.6634 C.3       1 <0>         0.0605
     33 C27        -1.4510   -5.5459    0.5508 C.3       1 <0>         0.0539
     34 N5         -0.3065   -6.1409    1.2538 N.3       1 <0>        -0.5287
     35 C28        -0.1978   -7.5776    0.9617 C.3       1 <0>         0.0167
     36 C29         1.0390   -8.1436    1.6645 C.3       1 <0>         0.0615
     37 O3          0.9456   -7.8818    3.0674 O.3       1 <0>        -0.3849
     38 C30         0.8389   -6.4921    3.3879 C.3       1 <0>         0.0625
     39 C31        -0.3999   -5.9094    2.7026 C.3       1 <0>         0.0120
     40 H1          3.1476   10.4156   -0.9682 H         1 <0>         0.0687
     41 H2          4.1639    8.9515   -0.7434 H         1 <0>         0.0732
     42 H3          3.5863    9.8722    0.6868 H         1 <0>         0.0734
     43 H4          0.9703    9.9770   -1.5648 H         1 <0>         0.1335
     44 H5         -1.0587    8.5861   -1.4884 H         1 <0>         0.1355
     45 H6          0.9374    5.8324    1.1029 H         1 <0>         0.1262
     46 H7          2.9651    7.2245    1.0118 H         1 <0>         0.1343
     47 H8         -3.0598    3.5802    0.0092 H         1 <0>         0.1784
     48 H9         -6.5817    5.5639    1.3261 H         1 <0>         0.0656
     49 H10        -5.0849    6.2845    2.0094 H         1 <0>         0.0565
     50 H11        -5.1481    4.5278    1.6395 H         1 <0>         0.0614
     51 H12        -6.5353    7.2315   -0.5338 H         1 <0>         0.0604
     52 H13        -5.0684    7.3943   -1.5577 H         1 <0>         0.0568
     53 H14        -5.0385    7.9519    0.1496 H         1 <0>         0.0614
     54 H15        -6.6235    4.7882   -1.0484 H         1 <0>         0.0647
     55 H16        -5.1900    3.7520   -0.7351 H         1 <0>         0.0637
     56 H17        -5.1566    4.9509   -2.0724 H         1 <0>         0.0570
     57 H18         0.7414    4.5248   -0.0719 H         1 <0>         0.4294
     58 H19         1.6215    2.3677    0.1180 H         1 <0>         0.4280
     59 H20        -1.3959    0.6376    1.1566 H         1 <0>         0.1450
     60 H21        -1.7537   -1.7925    1.1139 H         1 <0>         0.1296
     61 H22         2.6580    1.3348   -1.2361 H         1 <0>         0.1222
     62 H23         4.2405   -0.1501   -2.3437 H         1 <0>         0.1243
     63 H24         3.8790   -2.5810   -2.3706 H         1 <0>         0.1250
     64 H25         1.9286   -3.5650   -1.2926 H         1 <0>         0.1353
     65 H26        -1.3465   -3.7335    1.7244 H         1 <0>         0.0659
     66 H27        -2.2726   -3.5787    0.1931 H         1 <0>         0.0716
     67 H28        -2.3868   -5.9052    1.0039 H         1 <0>         0.0605
     68 H29        -1.4216   -5.8370   -0.5096 H         1 <0>         0.0912
     69 H30        -1.0977   -8.0949    1.3258 H         1 <0>         0.0437
     70 H31        -0.1044   -7.7249   -0.1244 H         1 <0>         0.0891
     71 H32         1.0925   -9.2291    1.4949 H         1 <0>         0.1001
     72 H33         1.9424   -7.6643    1.2595 H         1 <0>         0.0618
     73 H34         0.7475   -6.3731    4.4776 H         1 <0>         0.0994
     74 H35         1.7375   -5.9645    3.0355 H         1 <0>         0.0616
     75 H36        -0.4553   -4.8284    2.8983 H         1 <0>         0.0869
     76 H37        -1.3031   -6.3997    3.0948 H         1 <0>         0.0443
@<TRIPOS>BOND
     1    1    2 1
     2    1   40 1
     3    1   41 1
     4    1   42 1
     5    2    7 ar
     6    2    3 ar
     7    3    4 ar
     8    3   43 1
     9    4    5 ar
    10    4   44 1
    11    5    6 ar
    12    5    8 1
    13    6    7 ar
    14    6   45 1
    15    7   46 1
    16    8   12 1
    17    8    9 1
    18    9   10 2
    19    9   17 1
    20   10   11 1
    21   10   47 1
    22   11   12 2
    23   11   13 1
    24   13   14 1
    25   13   15 1
    26   13   16 1
    27   14   48 1
    28   14   49 1
    29   14   50 1
    30   15   51 1
    31   15   52 1
    32   15   53 1
    33   16   54 1
    34   16   55 1
    35   16   56 1
    36   17   18 am
    37   17   57 1
    38   18   19 2
    39   18   20 am
    40   20   21 1
    41   20   58 1
    42   21   26 ar
    43   21   22 ar
    44   22   23 ar
    45   22   59 1
    46   23   24 ar
    47   23   60 1
    48   24   25 ar
    49   24   31 1
    50   25   30 ar
    51   25   26 ar
    52   26   27 ar
    53   27   28 ar
    54   27   61 1
    55   28   29 ar
    56   28   62 1
    57   29   30 ar
    58   29   63 1
    59   30   64 1
    60   31   32 1
    61   32   33 1
    62   32   65 1
    63   32   66 1
    64   33   34 1
    65   33   67 1
    66   33   68 1
    67   34   39 1
    68   34   35 1
    69   35   36 1
    70   35   69 1
    71   35   70 1
    72   36   37 1
    73   36   71 1
    74   36   72 1
    75   37   38 1
    76   38   39 1
    77   38   73 1
    78   38   74 1
    79   39   75 1
    80   39   76 1
@<TRIPOS>MOLECULE
ZINC34633957
   32    35     0     0     0
SMALL
USER_CHARGES

@<TRIPOS>ATOM
      1 C1         -0.0143    1.3784   -0.0483 C.ar      1 <0>        -0.1488
      2 C2          1.1681    2.0822    0.1079 C.ar      1 <0>        -0.0588
      3 C3          2.3771    1.4200    0.1651 C.ar      1 <0>        -0.1422
      4 C4          2.4194    0.0321    0.0663 C.ar      1 <0>         0.1618
      5 C5          1.2217   -0.6754   -0.0911 C.ar      1 <0>        -0.1625
      6 C6          0.0080    0.0019   -0.1480 C.ar      1 <0>        -0.0260
      7 C7          1.5787   -2.1121   -0.1655 C.2       1 <0>         0.1803
      8 N1          0.7682   -3.1254   -0.3117 N.2       1 <0>        -0.2625
      9 O1         -0.6268   -2.9066   -0.4182 O.3       1 <0>        -0.3794
     10 C8          3.0518   -2.1494   -0.0386 C.2       1 <0>         0.3106
     11 C9          3.8487   -3.2858   -0.0526 C.2       1 <0>        -0.2144
     12 C10         3.4076   -4.6940    0.0398 C.ar      1 <0>        -0.0494
     13 C11         2.1588   -5.2966    0.1617 C.ar      1 <0>        -0.1198
     14 C12         2.0666   -6.6738    0.2263 C.ar      1 <0>         0.0771
     15 C13         3.2147   -7.4503    0.1703 C.ar      1 <0>        -0.1208
     16 C14         4.4567   -6.8608    0.0496 C.ar      1 <0>        -0.1076
     17 C15         4.5692   -5.4766   -0.0174 C.ar      1 <0>         0.1283
     18 N2          5.6750   -4.6423   -0.1374 N.am      1 <0>        -0.6463
     19 C16         5.3104   -3.3492   -0.1688 C.2       1 <0>         0.5709
     20 O2          6.0621   -2.3960   -0.2723 O.2       1 <0>        -0.5204
     21 F1          0.8574   -7.2646    0.3445 F         1 <0>        -0.1377
     22 N3          3.4857   -0.8575    0.0946 N.pl3     1 <0>        -0.6144
     23 H1         -0.9554    1.9068   -0.0877 H         1 <0>         0.1365
     24 H2          1.1436    3.1591    0.1854 H         1 <0>         0.1384
     25 H3          3.2928    1.9796    0.2865 H         1 <0>         0.1352
     26 H4         -0.9139   -0.5475   -0.2695 H         1 <0>         0.1392
     27 H5         -1.1450   -3.7162   -0.5237 H         1 <0>         0.4151
     28 H6          1.2660   -4.6905    0.2058 H         1 <0>         0.1753
     29 H7          3.1360   -8.5262    0.2221 H         1 <0>         0.1430
     30 H8          5.3433   -7.4761    0.0070 H         1 <0>         0.1384
     31 H9          6.5918   -4.9538   -0.1952 H         1 <0>         0.4210
     32 H10         4.4148   -0.5979    0.1954 H         1 <0>         0.4399
@<TRIPOS>BOND
     1    1    6 ar
     2    1    2 ar
     3    1   23 1
     4    2    3 ar
     5    2   24 1
     6    3    4 ar
     7    3   25 1
     8    4   22 1
     9    4    5 ar
    10    5    6 ar
    11    5    7 1
    12    6   26 1
    13    7    8 2
    14    7   10 1
    15    8    9 1
    16    9   27 1
    17   10   11 2
    18   10   22 1
    19   11   19 1
    20   11   12 1
    21   12   17 ar
    22   12   13 ar
    23   13   14 ar
    24   13   28 1
    25   14   15 ar
    26   14   21 1
    27   15   16 ar
    28   15   29 1
    29   16   17 ar
    30   16   30 1
    31   17   18 1
    32   18   19 am
    33   18   31 1
    34   19   20 2
    35   22   32 1
@<TRIPOS>MOLECULE
ZINC20148984
   41    45     0     0     0
SMALL
USER_CHARGES
1-cyclopentyl-3-(1H-pyrrolo[3,2-e]pyridin-5-yl)pyrazolo[4,5-e]pyrimidin-4-amine
@<TRIPOS>ATOM
      1 C1          4.4845    4.9055    2.0125 C.2       1 <0>        -0.1900
      2 C2          5.5992    4.3307    1.5348 C.2       1 <0>         0.0669
      3 N1          5.2848    3.4893    0.5015 N.pl3     1 <0>        -0.5784
      4 H1          5.9256    2.9627   -0.0014 H         1 <0>         0.4233
      5 C3          3.9281    3.5001    0.2812 C.ar      1 <0>         0.2921
      6 C4          3.3669    4.3889    1.2195 C.ar      1 <0>        -0.1505
      7 C5          1.9890    4.6049    1.2249 C.ar      1 <0>         0.0123
      8 C6          1.2154    3.9130    0.2940 C.ar      1 <0>        -0.1086
      9 C7          1.8449    3.0477   -0.6050 C.ar      1 <0>         0.1517
     10 N2          3.1471    2.8701   -0.5872 N.ar      1 <0>        -0.4865
     11 C8         -0.2553    4.0974    0.2542 C.2       1 <0>         0.1769
     12 C9         -1.2579    3.0400    0.1283 C.ar      1 <0>        -0.3246
     13 C10        -1.2161    1.6416    0.0009 C.ar      1 <0>         0.5185
     14 N3         -2.3661    0.9828   -0.1017 N.ar      1 <0>        -0.6042
     15 C11        -3.5224    1.6223   -0.0898 C.ar      1 <0>         0.3863
     16 N4         -3.6100    2.9293    0.0228 N.ar      1 <0>        -0.5738
     17 C12        -2.5123    3.6779    0.1313 C.ar      1 <0>         0.3755
     18 N5         -2.2765    5.0144    0.2581 N.pl3     1 <0>        -0.3684
     19 N6         -0.8976    5.2388    0.3304 N.2       1 <0>        -0.2292
     20 C13        -3.3071    6.0542    0.3110 C.3       1 <0>         0.1632
     21 C14        -3.0862    7.0753   -0.8240 C.3       1 <0>        -0.1330
     22 C15        -3.4640    8.4369   -0.1879 C.3       1 <0>        -0.1220
     23 C16        -2.9184    8.3038    1.2556 C.3       1 <0>        -0.1210
     24 C17        -3.2009    6.8348    1.6328 C.3       1 <0>        -0.1322
     25 N7         -0.0104    0.9674   -0.0117 N.pl3     1 <0>        -0.8291
     26 H2          4.4234    5.6137    2.8256 H         1 <0>         0.1556
     27 H3          6.5967    4.5059    1.9100 H         1 <0>         0.1829
     28 H4          1.5348    5.2845    1.9308 H         1 <0>         0.1424
     29 H5          1.2485    2.5132   -1.3297 H         1 <0>         0.1671
     30 H6         -4.4328    1.0478   -0.1756 H         1 <0>         0.2050
     31 H7         -4.2959    5.6044    0.2215 H         1 <0>         0.1144
     32 H8         -2.0422    7.0775   -1.1374 H         1 <0>         0.0814
     33 H9         -3.7386    6.8539   -1.6687 H         1 <0>         0.0742
     34 H10        -4.5455    8.5726   -0.1810 H         1 <0>         0.0720
     35 H11        -2.9740    9.2575   -0.7119 H         1 <0>         0.0733
     36 H12        -3.4484    8.9788    1.9276 H         1 <0>         0.0704
     37 H13        -1.8473    8.5043    1.2786 H         1 <0>         0.0705
     38 H14        -4.1384    6.7646    2.1843 H         1 <0>         0.0772
     39 H15        -2.3825    6.4400    2.2349 H         1 <0>         0.0748
     40 H16         0.0305    0.0526   -0.3317 H         1 <0>         0.4120
     41 H17         0.7961    1.4102    0.2956 H         1 <0>         0.4116
@<TRIPOS>BOND
     1    1    6 1
     2    1    2 2
     3    1   26 1
     4    2    3 1
     5    2   27 1
     6    3    4 1
     7    3    5 1
     8    5   10 ar
     9    5    6 ar
    10    6    7 ar
    11    7    8 ar
    12    7   28 1
    13    8    9 ar
    14    8   11 1
    15    9   10 ar
    16    9   29 1
    17   11   19 2
    18   11   12 1
    19   12   17 ar
    20   12   13 ar
    21   13   14 ar
    22   13   25 1
    23   14   15 ar
    24   15   16 ar
    25   15   30 1
    26   16   17 ar
    27   17   18 1
    28   18   19 1
    29   18   20 1
    30   20   24 1
    31   20   21 1
    32   20   31 1
    33   21   22 1
    34   21   32 1
    35   21   33 1
    36   22   23 1
    37   22   34 1
    38   22   35 1
    39   23   24 1
    40   23   36 1
    41   23   37 1
    42   24   38 1
    43   24   39 1
    44   25   40 1
    45   25   41 1
@<TRIPOS>MOLECULE
ZINC15079662
   49    53     0     0     0
SMALL
USER_CHARGES
N-(2,3-dihydro-1,4-benzodioxin-6-yl)-5-[2-(4-pyridylmethylamino)phenyl]-1,3,4-oxadiazol-2-amine
@<TRIPOS>ATOM
      1 C1          6.9400   -6.6652   -0.4384 C.ar      1 <0>        -0.1755
      2 C2          6.2603   -7.8640   -0.5727 C.ar      1 <0>        -0.0442
      3 C3          4.8794   -7.8838   -0.6114 C.ar      1 <0>        -0.1988
      4 C4          4.1642   -6.6988   -0.5151 C.ar      1 <0>         0.2512
      5 C5          4.8496   -5.4829   -0.3790 C.ar      1 <0>        -0.0982
      6 C6          6.2448   -5.4772   -0.3476 C.ar      1 <0>        -0.0210
      7 C7          4.0995   -4.2155   -0.2756 C.2       1 <0>         0.2009
      8 N1          4.3487   -3.1097   -0.9348 N.2       1 <0>        -0.2461
      9 N2          3.4958   -2.2083   -0.5953 N.2       1 <0>        -0.3182
     10 C8          2.6681   -2.7028    0.2942 C.2       1 <0>         0.4110
     11 O1          3.0336   -3.9791    0.5207 O.3       1 <0>        -0.2432
     12 N3          1.6169   -2.0344    0.8936 N.pl3     1 <0>        -0.6087
     13 C9          1.2804   -0.7415    0.4759 C.ar      1 <0>         0.1703
     14 C10         1.5639   -0.3345   -0.8212 C.ar      1 <0>        -0.1243
     15 C11         1.2335    0.9420   -1.2331 C.ar      1 <0>        -0.0817
     16 C12         0.6184    1.8207   -0.3537 C.ar      1 <0>         0.0361
     17 C13         0.3309    1.4155    0.9444 C.ar      1 <0>         0.0780
     18 C14         0.6635    0.1347    1.3580 C.ar      1 <0>        -0.1417
     19 O2         -0.2801    2.2610    1.8188 O.3       1 <0>        -0.3054
     20 C15        -0.2605    3.6539    1.4882 C.3       1 <0>         0.0206
     21 C16        -0.6458    3.8025    0.0101 C.3       1 <0>         0.0197
     22 O3          0.3078    3.0782   -0.7756 O.3       1 <0>        -0.3048
     23 N4          2.7709   -6.7168   -0.5530 N.pl3     1 <0>        -0.7369
     24 C17         2.0612   -7.9730   -0.8068 C.3       1 <0>         0.1633
     25 C18         0.5754   -7.7216   -0.7963 C.ar      1 <0>        -0.0673
     26 C19        -0.1543   -7.8289    0.3778 C.ar      1 <0>        -0.1544
     27 C20        -1.5147   -7.5868    0.3496 C.ar      1 <0>         0.0993
     28 N5         -2.1198   -7.2668   -0.7775 N.ar      1 <0>        -0.4773
     29 C21        -1.4585   -7.1602   -1.9135 C.ar      1 <0>         0.1002
     30 C22        -0.0954   -7.3831   -1.9616 C.ar      1 <0>        -0.1543
     31 H1          8.0196   -6.6597   -0.4095 H         1 <0>         0.1317
     32 H2          6.8128   -8.7889   -0.6480 H         1 <0>         0.1304
     33 H3          4.3561   -8.8227   -0.7163 H         1 <0>         0.1305
     34 H4          6.7796   -4.5442   -0.2479 H         1 <0>         0.1336
     35 H5          1.1126   -2.4614    1.6037 H         1 <0>         0.4279
     36 H6          2.0426   -1.0164   -1.5084 H         1 <0>         0.1521
     37 H7          1.4551    1.2566   -2.2422 H         1 <0>         0.1432
     38 H8          0.4429   -0.1812    2.3670 H         1 <0>         0.1407
     39 H9         -0.9773    4.1895    2.1106 H         1 <0>         0.1246
     40 H10         0.7396    4.0561    1.6502 H         1 <0>         0.0802
     41 H11        -1.6436    3.3950   -0.1524 H         1 <0>         0.0789
     42 H12        -0.6282    4.8557   -0.2702 H         1 <0>         0.1242
     43 H13         2.2712   -5.8976   -0.4113 H         1 <0>         0.4001
     44 H14         2.3562   -8.3669   -1.7794 H         1 <0>         0.0793
     45 H15         2.3129   -8.6958   -0.0306 H         1 <0>         0.0793
     46 H16         0.3347   -8.0950    1.3032 H         1 <0>         0.1377
     47 H17        -2.0897   -7.6650    1.2605 H         1 <0>         0.1594
     48 H18        -1.9884   -6.8962   -2.8168 H         1 <0>         0.1597
     49 H19         0.4405   -7.2950   -2.8951 H         1 <0>         0.1378
@<TRIPOS>BOND
     1    1    6 ar
     2    1    2 ar
     3    1   31 1
     4    2    3 ar
     5    2   32 1
     6    3    4 ar
     7    3   33 1
     8    4    5 ar
     9    4   23 1
    10    5    6 ar
    11    5    7 1
    12    6   34 1
    13    7   11 1
    14    7    8 2
    15    8    9 1
    16    9   10 2
    17   10   11 1
    18   10   12 1
    19   12   13 1
    20   12   35 1
    21   13   18 ar
    22   13   14 ar
    23   14   15 ar
    24   14   36 1
    25   15   16 ar
    26   15   37 1
    27   16   22 1
    28   16   17 ar
    29   17   18 ar
    30   17   19 1
    31   18   38 1
    32   19   20 1
    33   20   21 1
    34   20   39 1
    35   20   40 1
    36   21   22 1
    37   21   41 1
    38   21   42 1
    39   23   24 1
    40   23   43 1
    41   24   25 1
    42   24   44 1
    43   24   45 1
    44   25   30 ar
    45   25   26 ar
    46   26   27 ar
    47   26   46 1
    48   27   28 ar
    49   27   47 1
    50   28   29 ar
    51   29   30 ar
    52   29   48 1
    53   30   49 1
@<TRIPOS>MOLECULE
ZINC22172612
   46    50     0     0     0
SMALL
USER_CHARGES
N-(1,3-benzodioxol-5-yl)-5-[2-(4-pyridylmethylamino)phenyl]-1,3,4-oxadiazol-2-amine
@<TRIPOS>ATOM
      1 C1         -0.1190    1.0783   -0.2558 C.ar      1 <0>        -0.1786
      2 C2         -1.2605    1.8093    0.0268 C.ar      1 <0>        -0.0435
      3 C3         -1.1782    3.1665    0.2719 C.ar      1 <0>        -0.2030
      4 C4          0.0510    3.8082    0.2248 C.ar      1 <0>         0.2573
      5 C5          1.2082    3.0718   -0.0668 C.ar      1 <0>        -0.1005
      6 C6          1.1111    1.7003   -0.3066 C.ar      1 <0>        -0.0207
      7 C7          2.5218    3.7436   -0.1202 C.2       1 <0>         0.1998
      8 N1          3.6293    3.3298    0.4470 N.2       1 <0>        -0.2464
      9 N2          4.5769    4.1616    0.1916 N.2       1 <0>        -0.3229
     10 C8          4.1122    5.1396   -0.5488 C.2       1 <0>         0.4107
     11 O1          2.8059    4.8953   -0.7675 O.3       1 <0>        -0.2426
     12 N3          4.8326    6.2200   -1.0227 N.pl3     1 <0>        -0.6240
     13 C9          6.1590    6.4088   -0.6174 C.ar      1 <0>         0.1837
     14 C10         7.0727    6.9965   -1.4827 C.ar      1 <0>        -0.1342
     15 C11         8.3825    7.1830   -1.0840 C.ar      1 <0>        -0.0728
     16 C12         8.7881    6.7850    0.1796 C.ar      1 <0>         0.0152
     17 C13         7.8741    6.1957    1.0498 C.ar      1 <0>         0.0649
     18 C14         6.5602    6.0138    0.6516 C.ar      1 <0>        -0.1140
     19 O2          8.5139    5.8973    2.2183 O.3       1 <0>        -0.3058
     20 C15         9.7228    6.6793    2.2056 C.3       1 <0>         0.2085
     21 O3         10.0012    6.8558    0.8040 O.3       1 <0>        -0.3027
     22 N4          0.1353    5.1784    0.4666 N.pl3     1 <0>        -0.7455
     23 C16        -1.0851    5.9622    0.6731 C.3       1 <0>         0.1649
     24 C17        -0.7210    7.4048    0.9129 C.ar      1 <0>        -0.0645
     25 C18        -0.4923    7.8750    2.1970 C.ar      1 <0>        -0.1546
     26 C19        -0.1563    9.2034    2.3779 C.ar      1 <0>         0.1002
     27 N5         -0.0619   10.0215    1.3480 N.ar      1 <0>        -0.4779
     28 C20        -0.2770    9.6102    0.1136 C.ar      1 <0>         0.0990
     29 C21        -0.6123    8.2946   -0.1448 C.ar      1 <0>        -0.1545
     30 H1         -0.1927    0.0170   -0.4416 H         1 <0>         0.1307
     31 H2         -2.2201    1.3149    0.0598 H         1 <0>         0.1293
     32 H3         -2.0723    3.7292    0.4964 H         1 <0>         0.1289
     33 H4          1.9980    1.1268   -0.5322 H         1 <0>         0.1322
     34 H5          4.3635    6.9314   -1.7183 H         1 <0>         0.4581
     35 H6          6.7593    7.3077   -2.4682 H         1 <0>         0.1448
     36 H7          9.0915    7.6396   -1.7587 H         1 <0>         0.1443
     37 H8          5.8490    5.5609    1.3265 H         1 <0>         0.1476
     38 H9          9.5460    7.6360    2.7190 H         1 <0>         0.0871
     39 H10        10.5217    6.1278    2.7228 H         1 <0>         0.1357
     40 H11         1.1181    5.6712    0.5024 H         1 <0>         0.4175
     41 H12        -1.7235    5.8887   -0.2196 H         1 <0>         0.0778
     42 H13        -1.6287    5.5713    1.5458 H         1 <0>         0.0772
     43 H14        -0.5725    7.2109    3.0449 H         1 <0>         0.1374
     44 H15         0.0267    9.5767    3.3746 H         1 <0>         0.1592
     45 H16        -0.1904   10.3096   -0.7047 H         1 <0>         0.1589
     46 H17        -0.7880    7.9640   -1.1578 H         1 <0>         0.1371
@<TRIPOS>BOND
     1    1    6 ar
     2    1    2 ar
     3    1   30 1
     4    2    3 ar
     5    2   31 1
     6    3    4 ar
     7    3   32 1
     8    4    5 ar
     9    4   22 1
    10    5    6 ar
    11    5    7 1
    12    6   33 1
    13    7   11 1
    14    7    8 2
    15    8    9 1
    16    9   10 2
    17   10   11 1
    18   10   12 1
    19   12   13 1
    20   12   34 1
    21   13   18 ar
    22   13   14 ar
    23   14   15 ar
    24   14   35 1
    25   15   16 ar
    26   15   36 1
    27   16   21 1
    28   16   17 ar
    29   17   18 ar
    30   17   19 1
    31   18   37 1
    32   19   20 1
    33   20   21 1
    34   20   38 1
    35   20   39 1
    36   22   23 1
    37   22   40 1
    38   23   24 1
    39   23   41 1
    40   23   42 1
    41   24   29 ar
    42   24   25 ar
    43   25   26 ar
    44   25   43 1
    45   26   27 ar
    46   26   44 1
    47   27   28 ar
    48   28   29 ar
    49   28   45 1
    50   29   46 1
@<TRIPOS>MOLECULE
ZINC00362938
   31    33     0     0     0
SMALL
USER_CHARGES

@<TRIPOS>ATOM
      1 C1         -0.0797    1.2533    0.5660 C.ar      1 <0>        -0.0888
      2 C2          1.0295    1.8175    1.1708 C.ar      1 <0>        -0.1271
      3 C3          2.2355    1.1475    1.1690 C.ar      1 <0>        -0.0558
      4 C4          2.3351   -0.1022    0.5551 C.ar      1 <0>        -0.1396
      5 C5          1.2121   -0.6657   -0.0532 C.ar      1 <0>        -0.0841
      6 C6          0.0122    0.0150   -0.0443 C.ar      1 <0>        -0.1261
      7 C7          3.6241   -0.8255    0.5489 C.2       1 <0>         0.5591
      8 O1          4.6005   -0.3322    1.0792 O.2       1 <0>        -0.5143
      9 N1          3.7170   -2.0319   -0.0446 N.am      1 <0>        -0.6515
     10 C8          4.9575   -2.6632   -0.1525 C.ar      1 <0>         0.1696
     11 C9          6.1176   -1.9197   -0.1469 C.ar      1 <0>        -0.1227
     12 C10         7.3605   -2.5364   -0.2531 C.ar      1 <0>        -0.0878
     13 C11         7.4639   -3.8898   -0.3659 C.ar      1 <0>        -0.1189
     14 C12         6.3049   -4.6822   -0.3754 C.ar      1 <0>        -0.0830
     15 C13         5.0333   -4.0689   -0.2622 C.ar      1 <0>         0.1076
     16 N2          3.9291   -4.8201   -0.2663 N.ar      1 <0>        -0.4788
     17 C14         3.9929   -6.1255   -0.3683 C.ar      1 <0>         0.1297
     18 C15         5.2110   -6.7932   -0.4768 C.ar      1 <0>        -0.1721
     19 C16         6.3779   -6.0837   -0.4906 C.ar      1 <0>        -0.0563
     20 H1         -1.0226    1.7799    0.5742 H         1 <0>         0.1301
     21 H2          0.9511    2.7846    1.6451 H         1 <0>         0.1329
     22 H3          3.1006    1.5891    1.6412 H         1 <0>         0.1382
     23 H4          1.2827   -1.6321   -0.5302 H         1 <0>         0.1268
     24 H5         -0.8573   -0.4198   -0.5146 H         1 <0>         0.1318
     25 H6          2.9219   -2.4617   -0.3969 H         1 <0>         0.4186
     26 H7          6.0615   -0.8447   -0.0592 H         1 <0>         0.1540
     27 H8          8.2562   -1.9330   -0.2465 H         1 <0>         0.1333
     28 H9          8.4362   -4.3528   -0.4481 H         1 <0>         0.1324
     29 H10         3.0774   -6.6985   -0.3679 H         1 <0>         0.1612
     30 H11         5.2319   -7.8698   -0.5588 H         1 <0>         0.1397
     31 H12         7.3310   -6.5847   -0.5750 H         1 <0>         0.1419
@<TRIPOS>BOND
     1    1    6 ar
     2    1    2 ar
     3    1   20 1
     4    2    3 ar
     5    2   21 1
     6    3    4 ar
     7    3   22 1
     8    4    5 ar
     9    4    7 1
    10    5    6 ar
    11    5   23 1
    12    6   24 1
    13    7    8 2
    14    7    9 am
    15    9   10 1
    16    9   25 1
    17   10   15 ar
    18   10   11 ar
    19   11   12 ar
    20   11   26 1
    21   12   13 ar
    22   12   27 1
    23   13   14 ar
    24   13   28 1
    25   14   19 ar
    26   14   15 ar
    27   15   16 ar
    28   16   17 ar
    29   17   18 ar
    30   17   29 1
    31   18   19 ar
    32   18   30 1
    33   19   31 1
@<TRIPOS>MOLECULE
ZINC13588784
   31    34     0     0     0
SMALL
USER_CHARGES

@<TRIPOS>ATOM
      1 C1         -0.0164    1.3604    0.0095 C.ar      1 <0>        -0.1493
      2 C2          1.1696    2.0826    0.0021 C.ar      1 <0>        -0.0511
      3 C3          2.3856    1.4353   -0.0134 C.ar      1 <0>        -0.1666
      4 C4          2.4314    0.0435   -0.0213 C.ar      1 <0>         0.1925
      5 C5          1.2279   -0.6865   -0.0132 C.ar      1 <0>        -0.1358
      6 C6          0.0021   -0.0041    0.0020 C.ar      1 <0>        -0.0437
      7 C7          1.2577   -2.1030   -0.0206 C.2       1 <0>         0.0471
      8 C8          2.4773   -2.7488   -0.0357 C.2       1 <0>        -0.1447
      9 C9          3.7098   -1.9532   -0.0437 C.2       1 <0>         0.5531
     10 O1          4.7927   -2.5106   -0.0574 O.2       1 <0>        -0.5388
     11 N1          3.6469   -0.6085   -0.0364 N.am      1 <0>        -0.6211
     12 H1          4.4673   -0.0911   -0.0418 H         1 <0>         0.4222
     13 C10         2.5409   -4.2227   -0.0431 C.2       1 <0>         0.3409
     14 N2          3.6941   -4.9619   -0.0525 N.pl3     1 <0>        -0.5811
     15 H2          4.6000   -4.6153   -0.0556 H         1 <0>         0.4339
     16 C11         3.3254   -6.2936   -0.0562 C.ar      1 <0>         0.0503
     17 C12         4.0316   -7.4882   -0.0656 C.ar      1 <0>        -0.1116
     18 C13         3.3485   -8.6863   -0.0675 C.ar      1 <0>        -0.0996
     19 C14         1.9609   -8.7050   -0.0606 C.ar      1 <0>        -0.1271
     20 C15         1.2483   -7.5397   -0.0518 C.ar      1 <0>        -0.0640
     21 C16         1.9193   -6.3123   -0.0488 C.ar      1 <0>         0.0499
     22 N3          1.5013   -5.0233   -0.0361 N.2       1 <0>        -0.4850
     23 H3         -0.9614    1.8829    0.0259 H         1 <0>         0.1352
     24 H4          1.1385    3.1622    0.0081 H         1 <0>         0.1366
     25 H5          3.3021    2.0065   -0.0198 H         1 <0>         0.1374
     26 H6         -0.9252   -0.5577    0.0082 H         1 <0>         0.1419
     27 H7          0.3384   -2.6698   -0.0141 H         1 <0>         0.1618
     28 H8          5.1116   -7.4798   -0.0717 H         1 <0>         0.1241
     29 H9          3.8972   -9.6165   -0.0747 H         1 <0>         0.1315
     30 H10         1.4391   -9.6506   -0.0625 H         1 <0>         0.1309
     31 H11         0.1686   -7.5660   -0.0472 H         1 <0>         0.1305
@<TRIPOS>BOND
     1    1    6 ar
     2    1    2 ar
     3    1   23 1
     4    2    3 ar
     5    2   24 1
     6    3    4 ar
     7    3   25 1
     8    4   11 1
     9    4    5 ar
    10    5    6 ar
    11    5    7 1
    12    6   26 1
    13    7    8 2
    14    7   27 1
    15    8    9 1
    16    8   13 1
    17    9   10 2
    18    9   11 am
    19   11   12 1
    20   13   22 2
    21   13   14 1
    22   14   15 1
    23   14   16 1
    24   16   21 ar
    25   16   17 ar
    26   17   18 ar
    27   17   28 1
    28   18   19 ar
    29   18   29 1
    30   19   20 ar
    31   19   30 1
    32   20   21 ar
    33   20   31 1
    34   21   22 1
@<TRIPOS>MOLECULE
ZINC13677843
   40    43     0     0     0
SMALL
USER_CHARGES

@<TRIPOS>ATOM
      1 C1         -0.4972    1.2152   -0.2273 C.3       1 <0>         0.0236
      2 O1          0.2492    0.0508    0.1321 O.3       1 <0>        -0.3016
      3 C2          1.0792   -0.4664   -0.8127 C.ar      1 <0>         0.1188
      4 C3          1.1765    0.1382   -2.0569 C.ar      1 <0>        -0.1587
      5 C4          2.0179   -0.3853   -3.0165 C.ar      1 <0>        -0.0646
      6 C5          2.7744   -1.5219   -2.7446 C.ar      1 <0>        -0.0211
      7 C6          2.6764   -2.1301   -1.4915 C.ar      1 <0>        -0.1369
      8 C7          1.8363   -1.6002   -0.5298 C.ar      1 <0>         0.0987
      9 O2          1.7453   -2.1901    0.6922 O.3       1 <0>        -0.3036
     10 C8          2.5502   -3.3498    0.9142 C.3       1 <0>         0.0239
     11 C9          3.5874   -1.8732   -3.9364 C.2       1 <0>         0.1308
     12 C10         3.3328   -0.9438   -4.9607 C.2       1 <0>        -0.3055
     13 C11         4.0858   -1.2858   -6.0373 C.2       1 <0>         0.3755
     14 N1          4.7955   -2.3970   -5.7063 N.pl3     1 <0>        -0.4880
     15 H1          5.4199   -2.8666   -6.2811 H         1 <0>         0.4434
     16 N2          4.4675   -2.7446   -4.3901 N.2       1 <0>        -0.2659
     17 N3          4.1239   -0.6194   -7.2594 N.pl3     1 <0>        -0.6554
     18 C12         4.8518   -1.1551   -8.3248 C.ar      1 <0>         0.1980
     19 C13         4.9430   -2.5328   -8.4827 C.ar      1 <0>        -0.1958
     20 C14         5.6626   -3.0602   -9.5366 C.ar      1 <0>        -0.0481
     21 C15         6.2933   -2.2197  -10.4353 C.ar      1 <0>        -0.1801
     22 C16         6.2052   -0.8460  -10.2819 C.ar      1 <0>         0.1402
     23 C17         5.4809   -0.3118   -9.2312 C.ar      1 <0>        -0.1933
     24 F1          6.8226   -0.0273  -11.1616 F         1 <0>        -0.1319
     25 C18         2.3257    0.0459   -4.4300 C.3       1 <0>         0.0158
     26 H2          0.1893    2.0210   -0.4870 H         1 <0>         0.0572
     27 H3         -1.1328    0.9893   -1.0835 H         1 <0>         0.0572
     28 H4         -1.1174    1.5233    0.6144 H         1 <0>         0.1025
     29 H5          0.5923    1.0200   -2.2751 H         1 <0>         0.1425
     30 H6          3.2595   -3.0123   -1.2723 H         1 <0>         0.1407
     31 H7          2.2797   -4.1229    0.1950 H         1 <0>         0.0564
     32 H8          3.6019   -3.0912    0.7915 H         1 <0>         0.0565
     33 H9          2.3827   -3.7200    1.9257 H         1 <0>         0.1025
     34 H10         3.6450    0.2167   -7.3711 H         1 <0>         0.4302
     35 H11         4.4515   -3.1906   -7.7812 H         1 <0>         0.1322
     36 H12         5.7332   -4.1310   -9.6589 H         1 <0>         0.1413
     37 H13         6.8560   -2.6351  -11.2582 H         1 <0>         0.1408
     38 H14         5.4082    0.7593   -9.1138 H         1 <0>         0.1425
     39 H15         1.4198    0.0201   -5.0355 H         1 <0>         0.0899
     40 H16         2.7500    1.0499   -4.4317 H         1 <0>         0.0894
@<TRIPOS>BOND
     1    1    2 1
     2    1   26 1
     3    1   27 1
     4    1   28 1
     5    2    3 1
     6    3    8 ar
     7    3    4 ar
     8    4    5 ar
     9    4   29 1
    10    5   25 1
    11    5    6 ar
    12    6    7 ar
    13    6   11 1
    14    7    8 ar
    15    7   30 1
    16    8    9 1
    17    9   10 1
    18   10   31 1
    19   10   32 1
    20   10   33 1
    21   11   16 2
    22   11   12 1
    23   12   13 2
    24   12   25 1
    25   13   14 1
    26   13   17 1
    27   14   15 1
    28   14   16 1
    29   17   18 1
    30   17   34 1
    31   18   23 ar
    32   18   19 ar
    33   19   20 ar
    34   19   35 1
    35   20   21 ar
    36   20   36 1
    37   21   22 ar
    38   21   37 1
    39   22   23 ar
    40   22   24 1
    41   23   38 1
    42   25   39 1
    43   25   40 1
@<TRIPOS>MOLECULE
ZINC58660958
   57    60     0     0     0
SMALL
USER_CHARGES

@<TRIPOS>ATOM
      1 C1          0.3721    1.3777   -0.3055 C.3       1 <0>        -0.1988
      2 C2          0.1634   -0.1084   -0.0071 C.3       1 <0>        -0.0200
      3 N1          0.9255   -0.4786    1.1929 N.4       1 <0>        -0.3758
      4 C3          0.1113   -0.2220    2.3885 C.3       1 <0>         0.0685
      5 C4         -0.1137    1.2609    2.5342 C.2       1 <0>         0.0656
      6 C5         -1.2571    1.8625    2.0543 C.2       1 <0>        -0.2833
      7 C6         -1.3356    3.2123    2.2516 C.2       1 <0>         0.0494
      8 S1          0.0999    3.5603    3.0483 S.3       1 <0>         0.4981
      9 N2          0.7669    2.0280    3.1266 N.2       1 <0>        -0.5011
     10 N3         -2.3559    4.0847    1.8824 N.pl3     1 <0>        -0.5737
     11 C7         -2.2517    5.4363    2.1737 C.2       1 <0>         0.4571
     12 C8         -3.2900    6.3273    1.8053 C.2       1 <0>         0.1343
     13 N4         -4.4479    6.1600    1.1891 N.2       1 <0>        -0.4484
     14 C9         -5.0665    7.3337    1.0833 C.2       1 <0>         0.0363
     15 C10        -4.2758    8.2924    1.6534 C.2       1 <0>         0.0797
     16 N5         -3.1536    7.6597    2.1100 N.pl3     1 <0>        -0.3300
     17 C11        -2.0229    8.0863    2.7582 C.2       1 <0>        -0.0245
     18 C12        -1.0629    7.1998    3.0878 C.2       1 <0>         0.1199
     19 N6         -1.1882    5.8999    2.8001 N.2       1 <0>        -0.5252
     20 C13         0.1747    7.6823    3.7995 C.3       1 <0>        -0.0983
     21 C14        -4.5771    9.7385    1.7559 C.2       1 <0>        -0.1867
     22 C15        -5.7040   10.3628    1.3017 C.2       1 <0>         0.1025
     23 N7         -5.5866   11.6761    1.5904 N.pl3     1 <0>        -0.4612
     24 H1         -6.2389   12.3640    1.3850 H         1 <0>         0.4502
     25 N8         -4.3612   11.8742    2.2379 N.2       1 <0>        -0.2752
     26 C16        -3.7561   10.7211    2.3456 C.2       1 <0>         0.0592
     27 C17         1.2712   -1.9051    1.1328 C.3       1 <0>         0.0542
     28 C18         2.0649   -2.2906    2.3827 C.3       1 <0>        -0.1727
     29 C19        -0.0105   -2.7380    1.0654 C.3       1 <0>        -0.1711
     30 C20         2.1191   -2.1723   -0.1124 C.3       1 <0>         0.0671
     31 O1          2.4554   -3.5599   -0.1709 O.3       1 <0>        -0.5516
     32 H2          1.4092    1.5481   -0.5946 H         1 <0>         0.0782
     33 H3         -0.2865    1.6808   -1.1195 H         1 <0>         0.1048
     34 H4          0.1423    1.9628    0.5849 H         1 <0>         0.0876
     35 H5         -0.8962   -0.2997    0.1620 H         1 <0>         0.1316
     36 H6          0.5090   -0.7011   -0.8542 H         1 <0>         0.1322
     37 H7         -0.8494   -0.7273    2.2891 H         1 <0>         0.1474
     38 H8          0.6307   -0.5990    3.2695 H         1 <0>         0.1497
     39 H9         -2.0370    1.3055    1.5563 H         1 <0>         0.1608
     40 H10        -3.1397    3.7469    1.4214 H         1 <0>         0.4425
     41 H11        -6.0298    7.5005    0.6244 H         1 <0>         0.1933
     42 H12        -1.9019    9.1310    3.0039 H         1 <0>         0.1754
     43 H13         0.0146    7.6388    4.8768 H         1 <0>         0.0884
     44 H14         1.0189    7.0469    3.5317 H         1 <0>         0.0868
     45 H15         0.3858    8.7103    3.5047 H         1 <0>         0.0852
     46 H16        -6.5373    9.8913    0.8020 H         1 <0>         0.1909
     47 H17        -2.7932   10.5508    2.8043 H         1 <0>         0.1818
     48 H18         1.4608   -2.1003    3.2698 H         1 <0>         0.0831
     49 H19         2.3214   -3.3491    2.3381 H         1 <0>         0.1139
     50 H20         2.9779   -1.6972    2.4307 H         1 <0>         0.0806
     51 H21        -0.5759   -2.4633    0.1749 H         1 <0>         0.0798
     52 H22         0.2460   -3.7964    1.0208 H         1 <0>         0.1124
     53 H23        -0.6146   -2.5476    1.9525 H         1 <0>         0.0819
     54 H24         1.5537   -1.8976   -1.0029 H         1 <0>         0.0698
     55 H25         3.0322   -1.5789   -0.0644 H         1 <0>         0.0683
     56 H26         2.9938   -3.8022   -0.9368 H         1 <0>         0.4046
     57 H27         1.7707    0.0707    1.2374 H         1 <0>         0.4245
@<TRIPOS>BOND
     1    1    2 1
     2    1   32 1
     3    1   33 1
     4    1   34 1
     5    2    3 1
     6    2   35 1
     7    2   36 1
     8    3    4 1
     9    3   27 1
    10    3   57 1
    11    4    5 1
    12    4   37 1
    13    4   38 1
    14    5    9 2
    15    5    6 1
    16    6    7 2
    17    6   39 1
    18    7    8 1
    19    7   10 1
    20    8    9 1
    21   10   11 1
    22   10   40 1
    23   11   19 2
    24   11   12 1
    25   12   16 1
    26   12   13 2
    27   13   14 1
    28   14   15 2
    29   14   41 1
    30   15   16 1
    31   15   21 1
    32   16   17 1
    33   17   18 2
    34   17   42 1
    35   18   19 1
    36   18   20 1
    37   20   43 1
    38   20   44 1
    39   20   45 1
    40   21   26 1
    41   21   22 2
    42   22   23 1
    43   22   46 1
    44   23   24 1
    45   23   25 1
    46   25   26 2
    47   26   47 1
    48   27   28 1
    49   27   29 1
    50   27   30 1
    51   28   48 1
    52   28   49 1
    53   28   50 1
    54   29   51 1
    55   29   52 1
    56   29   53 1
    57   30   31 1
    58   30   54 1
    59   30   55 1
    60   31   56 1
@<TRIPOS>MOLECULE
ZINC20148983
   39    42     0     0     0
SMALL
USER_CHARGES
1-isopropyl-3-(6-quinolyl)pyrazolo[4,5-e]pyrimidin-4-amine
@<TRIPOS>ATOM
      1 C1          1.0254    8.7978   -2.0248 C.3       1 <0>        -0.1621
      2 C2          1.2018    8.9153   -0.5095 C.3       1 <0>         0.1606
      3 C3         -0.1710    9.0289    0.1564 C.3       1 <0>        -0.1621
      4 N1          1.8926    7.7262   -0.0046 N.pl3     1 <0>        -0.3691
      5 C4          3.0880    7.7288    0.6508 C.ar      1 <0>         0.3756
      6 C5          3.3891    6.3885    0.9574 C.ar      1 <0>        -0.3235
      7 C6          2.2832    5.5859    0.4354 C.2       1 <0>         0.1611
      8 N2          1.4309    6.4112   -0.1252 N.2       1 <0>        -0.2249
      9 C7          2.1525    4.1119    0.5188 C.ar      1 <0>        -0.0128
     10 C8          1.7465    3.3824   -0.6110 C.ar      1 <0>        -0.0754
     11 C9          1.6190    2.0318   -0.5611 C.ar      1 <0>        -0.0829
     12 C10         1.8956    1.3409    0.6333 C.ar      1 <0>         0.1347
     13 C11         2.3061    2.0687    1.7786 C.ar      1 <0>        -0.1018
     14 C12         2.4317    3.4637    1.7084 C.ar      1 <0>        -0.0831
     15 C13         2.5804    1.3697    2.9700 C.ar      1 <0>        -0.0542
     16 C14         2.4374    0.0111    2.9678 C.ar      1 <0>        -0.1718
     17 C15         2.0303   -0.6425    1.8073 C.ar      1 <0>         0.1391
     18 N3          1.7757    0.0115    0.6997 N.ar      1 <0>        -0.4734
     19 C16         4.5832    6.1084    1.6415 C.ar      1 <0>         0.5181
     20 N4          5.3762    7.1241    1.9688 N.ar      1 <0>        -0.6038
     21 C17         5.0541    8.3678    1.6609 C.ar      1 <0>         0.3865
     22 N5          3.9473    8.6775    1.0220 N.ar      1 <0>        -0.5731
     23 N6          4.9255    4.8098    1.9657 N.pl3     1 <0>        -0.8303
     24 H1          2.0034    8.7169   -2.4992 H         1 <0>         0.0603
     25 H2          0.4358    7.9102   -2.2542 H         1 <0>         0.0702
     26 H3          0.5114    9.6825   -2.4004 H         1 <0>         0.0791
     27 H4          1.7914    9.8029   -0.2801 H         1 <0>         0.1120
     28 H5         -0.0453    9.1126    1.2359 H         1 <0>         0.0600
     29 H6         -0.6850    9.9136   -0.2192 H         1 <0>         0.0791
     30 H7         -0.7606    8.1413   -0.0730 H         1 <0>         0.0701
     31 H8          1.5326    3.9036   -1.5325 H         1 <0>         0.1376
     32 H9          1.3057    1.4868   -1.4393 H         1 <0>         0.1440
     33 H10         2.7434    4.0269    2.5755 H         1 <0>         0.1398
     34 H11         2.8910    1.8936    3.8619 H         1 <0>         0.1419
     35 H12         2.6394   -0.5553    3.8649 H         1 <0>         0.1418
     36 H13         1.9210   -1.7169    1.8201 H         1 <0>         0.1629
     37 H14         5.7273    9.1628    1.9460 H         1 <0>         0.2058
     38 H15         4.4796    4.0672    1.5292 H         1 <0>         0.4125
     39 H16         5.6119    4.6406    2.6300 H         1 <0>         0.4110
@<TRIPOS>BOND
     1    1    2 1
     2    1   24 1
     3    1   25 1
     4    1   26 1
     5    2    3 1
     6    2    4 1
     7    2   27 1
     8    3   28 1
     9    3   29 1
    10    3   30 1
    11    4    8 1
    12    4    5 1
    13    5   22 ar
    14    5    6 ar
    15    6    7 1
    16    6   19 ar
    17    7    8 2
    18    7    9 1
    19    9   14 ar
    20    9   10 ar
    21   10   11 ar
    22   10   31 1
    23   11   12 ar
    24   11   32 1
    25   12   18 ar
    26   12   13 ar
    27   13   14 ar
    28   13   15 ar
    29   14   33 1
    30   15   16 ar
    31   15   34 1
    32   16   17 ar
    33   16   35 1
    34   17   18 ar
    35   17   36 1
    36   19   20 ar
    37   19   23 1
    38   20   21 ar
    39   21   22 ar
    40   21   37 1
    41   23   38 1
    42   23   39 1
@<TRIPOS>MOLECULE
ZINC08581906
   35    37     0     0     0
SMALL
USER_CHARGES

@<TRIPOS>ATOM
      1 C1          0.4062    0.7134    0.7743 C.3       1 <0>        -0.1622
      2 C2          0.2062   -0.7227    0.2861 C.3       1 <0>         0.1603
      3 C3          0.8807   -1.6910    1.2599 C.3       1 <0>        -0.1622
      4 N1         -1.2267   -1.0197    0.2161 N.pl3     1 <0>        -0.3682
      5 C4         -1.9008   -1.3860   -0.9107 C.ar      1 <0>         0.3764
      6 C5         -3.2452   -1.5750   -0.5394 C.ar      1 <0>        -0.3225
      7 C6         -3.3224   -1.2938    0.8939 C.2       1 <0>         0.1576
      8 N2         -2.1144   -0.9772    1.2964 N.2       1 <0>        -0.2230
      9 C7         -4.5398   -1.3596    1.7373 C.ar      1 <0>         0.0119
     10 C8         -5.4110   -2.4425    1.6242 C.ar      1 <0>        -0.1154
     11 C9         -6.5434   -2.5019    2.4107 C.ar      1 <0>        -0.0699
     12 C10        -6.8177   -1.4892    3.3123 C.ar      1 <0>        -0.1122
     13 C11        -5.9551   -0.4073    3.4309 C.ar      1 <0>         0.1435
     14 C12        -4.8137   -0.3425    2.6492 C.ar      1 <0>        -0.1062
     15 O1         -6.2283    0.5856    4.3181 O.3       1 <0>        -0.4823
     16 Br1        -8.3720   -1.5780    4.3858 Br        1 <0>        -0.0262
     17 C13        -4.1663   -1.9613   -1.5268 C.ar      1 <0>         0.5186
     18 N3         -3.7252   -2.1311   -2.7695 N.ar      1 <0>        -0.6031
     19 C14        -2.4536   -1.9426   -3.0738 C.ar      1 <0>         0.3877
     20 N4         -1.5560   -1.5814   -2.1832 N.ar      1 <0>        -0.5731
     21 N5         -5.4973   -2.1603   -1.2145 N.pl3     1 <0>        -0.8288
     22 H1          1.4723    0.9344    0.8264 H         1 <0>         0.0796
     23 H2         -0.0744    1.4033    0.0805 H         1 <0>         0.0606
     24 H3         -0.0369    0.8258    1.7638 H         1 <0>         0.0698
     25 H4          0.6493   -0.8351   -0.7034 H         1 <0>         0.1127
     26 H5          0.4376   -1.5786    2.2494 H         1 <0>         0.0699
     27 H6          0.7383   -2.7142    0.9121 H         1 <0>         0.0604
     28 H7          1.9468   -1.4701    1.3120 H         1 <0>         0.0794
     29 H8         -5.1997   -3.2345    0.9210 H         1 <0>         0.1438
     30 H9         -7.2175   -3.3410    2.3219 H         1 <0>         0.1472
     31 H10        -4.1397    0.4960    2.7436 H         1 <0>         0.1455
     32 H11        -5.8524    0.4419    5.1973 H         1 <0>         0.3991
     33 H12        -2.1380   -2.0919   -4.0958 H         1 <0>         0.2063
     34 H13        -5.8559   -1.8196   -0.3801 H         1 <0>         0.4127
     35 H14        -6.0732   -2.6406   -1.8297 H         1 <0>         0.4121
@<TRIPOS>BOND
     1    1    2 1
     2    1   22 1
     3    1   23 1
     4    1   24 1
     5    2    3 1
     6    2    4 1
     7    2   25 1
     8    3   26 1
     9    3   27 1
    10    3   28 1
    11    4    8 1
    12    4    5 1
    13    5   20 ar
    14    5    6 ar
    15    6    7 1
    16    6   17 ar
    17    7    8 2
    18    7    9 1
    19    9   14 ar
    20    9   10 ar
    21   10   11 ar
    22   10   29 1
    23   11   12 ar
    24   11   30 1
    25   12   13 ar
    26   12   16 1
    27   13   14 ar
    28   13   15 1
    29   14   31 1
    30   15   32 1
    31   17   18 ar
    32   17   21 1
    33   18   19 ar
    34   19   20 ar
    35   19   33 1
    36   21   34 1
    37   21   35 1
@<TRIPOS>MOLECULE
ZINC36056301
   39    42     0     0     0
SMALL
USER_CHARGES

@<TRIPOS>ATOM
      1 C1          0.9254    1.9991    0.1115 C.3       1 <0>        -0.1625
      2 C2          0.5644    0.5164    0.0017 C.3       1 <0>         0.1602
      3 C3         -0.9547    0.3678   -0.1037 C.3       1 <0>        -0.1630
      4 N1          1.1948   -0.0526   -1.1921 N.pl3     1 <0>        -0.3660
      5 C4          2.0845   -1.0857   -1.1960 C.ar      1 <0>         0.3791
      6 C5          2.4399   -1.3150   -2.5382 C.ar      1 <0>        -0.3289
      7 C6          1.6949   -0.3401   -3.3365 C.2       1 <0>         0.1761
      8 N2          0.9724    0.3761   -2.5050 N.2       1 <0>        -0.2098
      9 C7          1.7418   -0.1929   -4.8056 C.2       1 <0>         0.1339
     10 C8          0.6708    0.0518   -5.6025 C.2       1 <0>        -0.1346
     11 C9          1.1678    0.1218   -6.9754 C.ar      1 <0>        -0.0943
     12 C10         0.5575    0.3431   -8.2141 C.ar      1 <0>        -0.0897
     13 C11         1.3249    0.3481   -9.3611 C.ar      1 <0>         0.0805
     14 C12         2.6992    0.1341   -9.2873 C.ar      1 <0>        -0.1109
     15 C13         3.3112   -0.0854   -8.0732 C.ar      1 <0>        -0.1139
     16 C14         2.5568   -0.0941   -6.9049 C.ar      1 <0>         0.1038
     17 N3          2.8789   -0.2768   -5.5757 N.pl3     1 <0>        -0.5932
     18 H1          3.7722   -0.4418   -5.2356 H         1 <0>         0.4168
     19 O1          0.7369    0.5623  -10.5684 O.3       1 <0>        -0.4967
     20 C15         3.3555   -2.3402   -2.8244 C.ar      1 <0>         0.5168
     21 N4          3.8460   -3.0492   -1.8121 N.ar      1 <0>        -0.6021
     22 C16         3.4845   -2.7997   -0.5663 C.ar      1 <0>         0.3889
     23 N5          2.6311   -1.8502   -0.2510 N.ar      1 <0>        -0.5714
     24 N6          3.7369   -2.6060   -4.1255 N.pl3     1 <0>        -0.8317
     25 H2          2.0076    2.1050    0.1866 H         1 <0>         0.0602
     26 H3          0.5693    2.5263   -0.7736 H         1 <0>         0.0709
     27 H4          0.4564    2.4224    0.9997 H         1 <0>         0.0802
     28 H5          0.9205   -0.0108    0.8868 H         1 <0>         0.1134
     29 H6         -1.3108    0.8949   -0.9888 H         1 <0>         0.0712
     30 H7         -1.2119   -0.6886   -0.1820 H         1 <0>         0.0610
     31 H8         -1.4237    0.7911    0.7845 H         1 <0>         0.0801
     32 H9         -0.3538    0.1719   -5.2829 H         1 <0>         0.1573
     33 H10        -0.5081    0.5089   -8.2728 H         1 <0>         0.1338
     34 H11         3.2906    0.1399  -10.1910 H         1 <0>         0.1358
     35 H12         4.3776   -0.2505   -8.0283 H         1 <0>         0.1290
     36 H13         0.6969    1.4933  -10.8268 H         1 <0>         0.3892
     37 H14         3.9074   -3.3999    0.2258 H         1 <0>         0.2077
     38 H15         3.2729   -2.1806   -4.8634 H         1 <0>         0.4091
     39 H16         4.4688   -3.2179   -4.3009 H         1 <0>         0.4134
@<TRIPOS>BOND
     1    1    2 1
     2    1   25 1
     3    1   26 1
     4    1   27 1
     5    2    3 1
     6    2    4 1
     7    2   28 1
     8    3   29 1
     9    3   30 1
    10    3   31 1
    11    4    8 1
    12    4    5 1
    13    5   23 ar
    14    5    6 ar
    15    6    7 1
    16    6   20 ar
    17    7    8 2
    18    7    9 1
    19    9   17 1
    20    9   10 2
    21   10   11 1
    22   10   32 1
    23   11   16 ar
    24   11   12 ar
    25   12   13 ar
    26   12   33 1
    27   13   14 ar
    28   13   19 1
    29   14   15 ar
    30   14   34 1
    31   15   16 ar
    32   15   35 1
    33   16   17 1
    34   17   18 1
    35   19   36 1
    36   20   21 ar
    37   20   24 1
    38   21   22 ar
    39   22   23 ar
    40   22   37 1
    41   24   38 1
    42   24   39 1
@<TRIPOS>MOLECULE
ZINC36056301
   40    43     0     0     0
SMALL
NO_CHARGES

@<TRIPOS>ATOM
      1 C1          0.4668   -0.4939    1.1218 C.3       1 <0>        -0.1699
      2 C2          0.3340   -1.7615    0.2754 C.3       1 <0>         0.1613
      3 C3          1.1061   -2.9024    0.9410 C.3       1 <0>        -0.1701
      4 N1         -1.0799   -2.1284    0.1641 N.pl3     1 <0>        -0.3634
      5 C4         -1.7908   -2.2350   -1.0057 C.ar      1 <0>         0.4043
      6 C5         -3.1109   -2.6092   -0.6652 C.ar      1 <0>        -0.2157
      7 C6         -4.0447   -2.7836   -1.7054 C.ar      1 <0>         0.3985
      8 N2         -3.6387   -2.5876   -2.9589 N.ar      1 <0>        -0.5485
      9 C7         -2.3961   -2.2391   -3.2258 C.ar      1 <0>         0.3110
     10 N3         -1.4867   -2.0641   -2.2858 N.ar      1 <0>        -0.5580
     11 N4         -5.3440   -3.1479   -1.4334 N.pl3     1 <0>        -0.8571
     12 C8         -3.1685   -2.7231    0.7407 C.2       1 <0>         0.1060
     13 C9         -4.3454   -3.0906    1.5281 C.2       1 <0>         0.1145
     14 C10        -4.5167   -2.8192    2.8889 C.2       1 <0>        -0.1932
     15 C11        -5.7650   -3.3339    3.2429 C.ar      1 <0>        -0.0803
     16 C12        -6.5191   -3.3917    4.4278 C.ar      1 <0>        -0.1106
     17 C13        -7.7442   -3.9909    4.4147 C.ar      1 <0>         0.0839
     18 C14        -8.2689   -4.5512    3.2463 C.ar      1 <0>        -0.1283
     19 C15        -7.5862   -4.5260    2.0714 C.ar      1 <0>        -0.1066
     20 C16        -6.3164   -3.9222    2.0150 C.ar      1 <0>         0.0610
     21 N5         -5.4208   -3.7321    1.0501 N.pl3     1 <0>        -0.5313
     22 O1         -8.4709   -4.0448    5.5631 O.3       1 <0>        -0.5017
     23 N6         -1.9318   -2.4352    1.2329 N.pl3     1 <0>        -0.4440
     24 H1          1.5188   -0.2209    1.2046 H         1 <0>         0.0835
     25 H2         -0.0832    0.3190    0.6476 H         1 <0>         0.0676
     26 H3          0.0595   -0.6766    2.1162 H         1 <0>         0.0606
     27 H4          0.7413   -1.5787   -0.7190 H         1 <0>         0.1243
     28 H5          1.0115   -3.8055    0.3380 H         1 <0>         0.0673
     29 H6          2.1581   -2.6294    1.0238 H         1 <0>         0.0835
     30 H7          0.6988   -3.0851    1.9354 H         1 <0>         0.0606
     31 H8         -2.1102   -2.0906   -4.2566 H         1 <0>         0.1998
     32 H9         -5.8197   -2.7336   -0.6966 H         1 <0>         0.4069
     33 H10        -5.7838   -3.8189   -1.9786 H         1 <0>         0.4071
     34 H11        -3.8197   -2.3112    3.5389 H         1 <0>         0.1445
     35 H12        -6.1313   -2.9654    5.3413 H         1 <0>         0.1279
     36 H13        -9.2428   -5.0169    3.2782 H         1 <0>         0.1286
     37 H14        -8.0164   -4.9676    1.1847 H         1 <0>         0.1247
     38 H15        -9.0572   -3.2870    5.6936 H         1 <0>         0.3860
     39 H16        -1.6823   -2.4395    2.1702 H         1 <0>         0.4490
     40 H17        -5.5296   -4.0197    0.1301 H         1 <0>         0.4163
@<TRIPOS>BOND
     1    1    2 1
     2    1   24 1
     3    1   25 1
     4    1   26 1
     5    2    3 1
     6    2    4 1
     7    2   27 1
     8    3   28 1
     9    3   29 1
    10    3   30 1
    11    4   23 1
    12    4    5 1
    13    5   10 ar
    14    5    6 ar
    15    6    7 ar
    16    6   12 1
    17    7    8 ar
    18    7   11 1
    19    8    9 ar
    20    9   10 ar
    21    9   31 1
    22   11   32 1
    23   11   33 1
    24   12   13 2
    25   12   23 1
    26   13   21 1
    27   13   14 1
    28   14   15 2
    29   14   34 1
    30   15   20 ar
    31   15   16 ar
    32   16   17 ar
    33   16   35 1
    34   17   18 ar
    35   17   22 1
    36   18   19 ar
    37   18   36 1
    38   19   20 ar
    39   19   37 1
    40   20   21 2
    41   21   40 1
    42   22   38 1
    43   23   39 1
@<TRIPOS>MOLECULE
ZINC64521265
   46    49     0     0     0
SMALL
USER_CHARGES

@<TRIPOS>ATOM
      1 C1          0.3476   -2.5642    0.7938 C.3       1 <0>        -0.1628
      2 C2         -0.3724   -2.4367   -0.5502 C.3       1 <0>         0.1606
      3 C3         -0.6891   -3.8315   -1.0934 C.3       1 <0>        -0.1622
      4 N1         -1.6190   -1.6892   -0.3674 N.pl3     1 <0>        -0.3682
      5 C4         -1.9328   -0.5173   -0.9891 C.ar      1 <0>         0.3758
      6 C5         -3.2117   -0.1436   -0.5353 C.ar      1 <0>        -0.3225
      7 C6         -3.6371   -1.1809    0.4040 C.2       1 <0>         0.1593
      8 N2         -2.6746   -2.0702    0.4677 N.2       1 <0>        -0.2224
      9 C7         -4.9218   -1.2229    1.1432 C.ar      1 <0>        -0.0245
     10 C8         -6.1183   -0.9455    0.4812 C.ar      1 <0>        -0.0801
     11 C9         -7.3162   -0.9844    1.1672 C.ar      1 <0>        -0.1161
     12 C10        -7.3388   -1.2973    2.5117 C.ar      1 <0>        -0.0731
     13 C11        -6.1481   -1.5766    3.1861 C.ar      1 <0>        -0.1285
     14 C12        -4.9368   -1.5447    2.4966 C.ar      1 <0>        -0.0211
     15 C13        -6.1728   -1.9106    4.6256 C.2       1 <0>         0.5570
     16 O1         -5.1357   -2.1534    5.2109 O.2       1 <0>        -0.4587
     17 N3         -7.3453   -1.9460    5.2893 N.am      1 <0>        -0.6240
     18 C14        -7.3683   -2.2582    6.6345 C.2       1 <0>         0.4093
     19 N4         -6.3504   -2.5344    7.3965 N.2       1 <0>        -0.5323
     20 C15        -6.5264   -2.8706    8.7976 C.3       1 <0>         0.0491
     21 C16        -7.9176   -2.4104    9.3123 C.3       1 <0>        -0.0885
     22 S1         -8.8003   -2.3601    7.6961 S.3       1 <0>        -0.2223
     23 C17        -3.7785    1.0433   -1.0279 C.ar      1 <0>         0.5179
     24 N5         -3.0796    1.7609   -1.9021 N.ar      1 <0>        -0.6035
     25 C18        -1.8816    1.3723   -2.3010 C.ar      1 <0>         0.3866
     26 N6         -1.3117    0.2693   -1.8675 N.ar      1 <0>        -0.5726
     27 N7         -5.0310    1.4545   -0.6148 N.pl3     1 <0>        -0.8297
     28 H1          1.2751   -3.1204    0.6578 H         1 <0>         0.0793
     29 H2          0.5732   -1.5705    1.1808 H         1 <0>         0.0605
     30 H3         -0.2926   -3.0925    1.5003 H         1 <0>         0.0708
     31 H4          0.2678   -1.9084   -1.2566 H         1 <0>         0.1123
     32 H5         -1.2020   -3.7407   -2.0509 H         1 <0>         0.0601
     33 H6          0.2384   -4.3877   -1.2294 H         1 <0>         0.0792
     34 H7         -1.3293   -4.3598   -0.3870 H         1 <0>         0.0703
     35 H8         -6.1075   -0.6993   -0.5703 H         1 <0>         0.1397
     36 H9         -8.2394   -0.7687    0.6498 H         1 <0>         0.1436
     37 H10        -8.2787   -1.3258    3.0429 H         1 <0>         0.1334
     38 H11        -4.0135   -1.7645    3.0120 H         1 <0>         0.1460
     39 H12        -8.1730   -1.7523    4.8221 H         1 <0>         0.4258
     40 H13        -6.4387   -3.9501    8.9203 H         1 <0>         0.1010
     41 H14        -5.7483   -2.3813    9.3834 H         1 <0>         0.1095
     42 H15        -8.3569   -3.1421    9.9903 H         1 <0>         0.1289
     43 H16        -7.8696   -1.4222    9.7696 H         1 <0>         0.1075
     44 H17        -1.3485    1.9855   -3.0124 H         1 <0>         0.2059
     45 H18        -5.4326    1.0649    0.1775 H         1 <0>         0.4118
     46 H19        -5.5089    2.1329   -1.1171 H         1 <0>         0.4117
@<TRIPOS>BOND
     1    1    2 1
     2    1   28 1
     3    1   29 1
     4    1   30 1
     5    2    3 1
     6    2    4 1
     7    2   31 1
     8    3   32 1
     9    3   33 1
    10    3   34 1
    11    4    8 1
    12    4    5 1
    13    5   26 ar
    14    5    6 ar
    15    6    7 1
    16    6   23 ar
    17    7    8 2
    18    7    9 1
    19    9   14 ar
    20    9   10 ar
    21   10   11 ar
    22   10   35 1
    23   11   12 ar
    24   11   36 1
    25   12   13 ar
    26   12   37 1
    27   13   14 ar
    28   13   15 1
    29   14   38 1
    30   15   16 2
    31   15   17 am
    32   17   18 1
    33   17   39 1
    34   18   22 1
    35   18   19 2
    36   19   20 1
    37   20   21 1
    38   20   40 1
    39   20   41 1
    40   21   22 1
    41   21   42 1
    42   21   43 1
    43   23   24 ar
    44   23   27 1
    45   24   25 ar
    46   25   26 ar
    47   25   44 1
    48   27   45 1
    49   27   46 1
@<TRIPOS>MOLECULE
ZINC36056300
   40    43     0     0     0
SMALL
USER_CHARGES

@<TRIPOS>ATOM
      1 C1          0.4126    0.6880    0.7885 C.3       1 <0>        -0.1627
      2 C2          0.2093   -0.7440    0.2895 C.3       1 <0>         0.1569
      3 C3          0.8826   -1.7211    1.2552 C.3       1 <0>        -0.1634
      4 N1         -1.2243   -1.0374    0.2184 N.pl3     1 <0>        -0.3592
      5 C4         -1.9000   -1.3937   -0.9107 C.ar      1 <0>         0.3794
      6 C5         -3.2446   -1.5828   -0.5400 C.ar      1 <0>        -0.3179
      7 C6         -3.3202   -1.3125    0.8956 C.2       1 <0>         0.1232
      8 N2         -2.1110   -1.0014    1.2998 N.2       1 <0>        -0.2051
      9 C7         -4.5366   -1.3827    1.7391 C.ar      1 <0>         0.1178
     10 C8         -5.4061   -2.4812    1.6050 C.ar      1 <0>        -0.1519
     11 C9         -6.5306   -2.5915    2.3528 C.ar      1 <0>         0.0142
     12 C10        -6.8501   -1.5908    3.2916 C.ar      1 <0>        -0.2346
     13 C11        -5.9500   -0.4370    3.4429 C.ar      1 <0>         0.2401
     14 C12        -4.7906   -0.3737    2.6433 C.ar      1 <0>        -0.1296
     15 N3         -6.4749    0.3393    4.3746 N.pl3     1 <0>        -0.4206
     16 H1         -8.2337    0.1398    5.5248 H         1 <0>         0.4708
     17 N4         -7.6615   -0.2385    4.8390 N.pl3     1 <0>        -0.4328
     18 C13        -7.8916   -1.3947    4.1942 C.2       1 <0>         0.5311
     19 N5         -8.9722   -2.2404    4.3922 N.pl3     1 <0>        -0.7811
     20 C14        -4.1671   -1.9596   -1.5297 C.ar      1 <0>         0.5166
     21 N6         -3.7272   -2.1207   -2.7740 N.ar      1 <0>        -0.5953
     22 C15        -2.4554   -1.9324   -3.0777 C.ar      1 <0>         0.3950
     23 N7         -1.5565   -1.5799   -2.1849 N.ar      1 <0>        -0.5665
     24 N8         -5.4983   -2.1583   -1.2179 N.pl3     1 <0>        -0.8311
     25 H2          1.4792    0.9063    0.8414 H         1 <0>         0.0837
     26 H3         -0.0671    1.3841    0.1005 H         1 <0>         0.0618
     27 H4         -0.0295    0.7936    1.7793 H         1 <0>         0.0688
     28 H5          0.6513   -0.8497   -0.7013 H         1 <0>         0.1176
     29 H6          0.7377   -2.7413    0.8997 H         1 <0>         0.0624
     30 H7          1.9492   -1.5028    1.3081 H         1 <0>         0.0836
     31 H8          0.4405   -1.6155    2.2459 H         1 <0>         0.0694
     32 H9         -5.1717   -3.2546    0.8885 H         1 <0>         0.1568
     33 H10        -7.1810   -3.4447    2.2292 H         1 <0>         0.1566
     34 H11        -4.1097    0.4595    2.7357 H         1 <0>         0.1611
     35 H12        -9.0501   -3.0570    3.8746 H         1 <0>         0.4467
     36 H13        -9.6503   -2.0154    5.0483 H         1 <0>         0.4297
     37 H14        -2.1408   -2.0745   -4.1010 H         1 <0>         0.2111
     38 H15        -5.8569   -1.8183   -0.3832 H         1 <0>         0.4073
     39 H16        -6.0742   -2.6377   -1.8338 H         1 <0>         0.4151
     40 H17        -6.0974    1.1764    4.6871 H         1 <0>         0.4749
@<TRIPOS>BOND
     1    1    2 1
     2    1   25 1
     3    1   26 1
     4    1   27 1
     5    2    3 1
     6    2    4 1
     7    2   28 1
     8    3   29 1
     9    3   30 1
    10    3   31 1
    11    4    8 1
    12    4    5 1
    13    5   23 ar
    14    5    6 ar
    15    6    7 1
    16    6   20 ar
    17    7    8 2
    18    7    9 1
    19    9   14 ar
    20    9   10 ar
    21   10   11 ar
    22   10   32 1
    23   11   12 ar
    24   11   33 1
    25   12   13 ar
    26   12   18 2
    27   13   14 ar
    28   13   15 2
    29   14   34 1
    30   15   17 1
    31   15   40 1
    32   16   17 1
    33   17   18 1
    34   18   19 1
    35   19   35 1
    36   19   36 1
    37   20   21 ar
    38   20   24 1
    39   21   22 ar
    40   22   23 ar
    41   22   37 1
    42   24   38 1
    43   24   39 1
@<TRIPOS>MOLECULE
ZINC36056300
   39    42     0     0     0
SMALL
USER_CHARGES

@<TRIPOS>ATOM
      1 C1          0.4081    0.7032    0.7800 C.3       1 <0>        -0.1618
      2 C2          0.2069   -0.7312    0.2873 C.3       1 <0>         0.1609
      3 C3          0.8807   -1.7032    1.2580 C.3       1 <0>        -0.1621
      4 N1         -1.2263   -1.0267    0.2166 N.pl3     1 <0>        -0.3701
      5 C4         -1.9009   -1.3889   -0.9113 C.ar      1 <0>         0.3750
      6 C5         -3.2455   -1.5776   -0.5407 C.ar      1 <0>        -0.3215
      7 C6         -3.3224   -1.3007    0.8936 C.2       1 <0>         0.1630
      8 N2         -2.1138   -0.9869    1.2972 N.2       1 <0>        -0.2264
      9 C7         -4.5394   -1.3682    1.7366 C.ar      1 <0>         0.0337
     10 C8         -5.4112   -2.4583    1.6155 C.ar      1 <0>        -0.1607
     11 C9         -6.5335   -2.5344    2.3833 C.ar      1 <0>        -0.0251
     12 C10        -6.8222   -1.5187    3.3018 C.ar      1 <0>        -0.1880
     13 C11        -5.9521   -0.4186    3.4315 C.ar      1 <0>         0.1561
     14 C12        -4.8063   -0.3538    2.6457 C.ar      1 <0>        -0.1126
     15 N3         -6.4874    0.3998    4.3930 N.pl3     1 <0>        -0.5024
     16 N4         -7.6751   -0.1655    4.8679 N.2       1 <0>        -0.3148
     17 C13        -7.9109   -1.2946    4.2539 C.2       1 <0>         0.3617
     18 N5         -9.0056   -2.1367    4.4680 N.pl3     1 <0>        -0.8327
     19 C14        -4.1668   -1.9602   -1.5291 C.ar      1 <0>         0.5189
     20 N6         -3.7258   -2.1271   -2.7723 N.ar      1 <0>        -0.6051
     21 C15        -2.4540   -1.9390   -3.0760 C.ar      1 <0>         0.3863
     22 N7         -1.5563   -1.5804   -2.1845 N.ar      1 <0>        -0.5746
     23 N8         -5.4980   -2.1588   -1.2175 N.pl3     1 <0>        -0.8276
     24 H1          1.4744    0.9231    0.8327 H         1 <0>         0.0786
     25 H2         -0.0719    1.3956    0.0885 H         1 <0>         0.0601
     26 H3         -0.0347    0.8128    1.7700 H         1 <0>         0.0697
     27 H4          0.6497   -0.8409   -0.7026 H         1 <0>         0.1118
     28 H5          0.4378   -1.5935    2.2479 H         1 <0>         0.0700
     29 H6          0.7373   -2.7251    0.9069 H         1 <0>         0.0603
     30 H7          1.9470   -1.4833    1.3106 H         1 <0>         0.0785
     31 H8         -5.1917   -3.2441    0.9078 H         1 <0>         0.1359
     32 H9         -7.2005   -3.3779    2.2831 H         1 <0>         0.1334
     33 H10        -4.1302    0.4831    2.7395 H         1 <0>         0.1348
     34 H11        -9.0923   -2.9581    3.9594 H         1 <0>         0.4132
     35 H12        -9.6785   -1.8997    5.1251 H         1 <0>         0.4096
     36 H13        -2.1385   -2.0855   -4.0984 H         1 <0>         0.2050
     37 H14        -5.8568   -1.8182   -0.3831 H         1 <0>         0.4149
     38 H15        -6.0739   -2.6388   -1.8330 H         1 <0>         0.4105
     39 H16        -6.1031    1.2373    4.6959 H         1 <0>         0.4433
@<TRIPOS>BOND
     1    1    2 1
     2    1   24 1
     3    1   25 1
     4    1   26 1
     5    2    3 1
     6    2    4 1
     7    2   27 1
     8    3   28 1
     9    3   29 1
    10    3   30 1
    11    4    8 1
    12    4    5 1
    13    5   22 ar
    14    5    6 ar
    15    6    7 1
    16    6   19 ar
    17    7    8 2
    18    7    9 1
    19    9   14 ar
    20    9   10 ar
    21   10   11 ar
    22   10   31 1
    23   11   12 ar
    24   11   32 1
    25   12   13 ar
    26   12   17 1
    27   13   14 ar
    28   13   15 1
    29   14   33 1
    30   15   16 1
    31   15   39 1
    32   16   17 2
    33   17   18 1
    34   18   34 1
    35   18   35 1
    36   19   20 ar
    37   19   23 1
    38   20   21 ar
    39   21   22 ar
    40   21   36 1
    41   23   37 1
    42   23   38 1
@<TRIPOS>MOLECULE
ZINC03966243
   84    88     0     0     0
SMALL
USER_CHARGES
N-(4-isopropoxyphenyl)-4-[6-methoxy-7-[3-(1-piperidyl)propoxy]quinazolin-4-yl]-piperazine-1-carboxamide
@<TRIPOS>ATOM
      1 C1          6.7701    4.5264   -1.2575 C.3       1 <0>        -0.1499
      2 C2          6.4967    3.0958   -0.7889 C.3       1 <0>         0.0769
      3 C3          7.4744    2.7298    0.3295 C.3       1 <0>        -0.1825
      4 O1          5.1571    3.0025   -0.3001 O.3       1 <0>        -0.3102
      5 C4          4.5717    1.7757   -0.3338 C.ar      1 <0>         0.1230
      6 C5          5.3083    0.6665   -0.7228 C.ar      1 <0>        -0.1923
      7 C6          4.7144   -0.5798   -0.7568 C.ar      1 <0>        -0.0743
      8 C7          3.3799   -0.7224   -0.4016 C.ar      1 <0>         0.1159
      9 C8          2.6432    0.3881   -0.0124 C.ar      1 <0>        -0.1027
     10 C9          3.2383    1.6338    0.0213 C.ar      1 <0>        -0.1355
     11 N1          2.7765   -1.9869   -0.4364 N.am      1 <0>        -0.6831
     12 C10         3.4836   -3.0808   -0.0903 C.2       1 <0>         0.7095
     13 O2          4.6669   -2.9820    0.1717 O.2       1 <0>        -0.5659
     14 N2          2.8793   -4.2842   -0.0346 N.am      1 <0>        -0.6302
     15 C11         1.4784   -4.4454   -0.4527 C.3       1 <0>         0.1163
     16 C12         1.4049   -5.6100   -1.4530 C.3       1 <0>         0.0464
     17 N3          2.0146   -6.8039   -0.8522 N.pl3     1 <0>        -0.4805
     18 C13         3.4424   -6.5929   -0.5788 C.3       1 <0>         0.0482
     19 C14         3.6012   -5.4698    0.4515 C.3       1 <0>         0.1328
     20 C15         1.8226   -7.9122   -1.6510 C.ar      1 <0>         0.3962
     21 C16         0.6195   -8.6545   -1.5866 C.ar      1 <0>        -0.1386
     22 C17        -0.4268   -8.2967   -0.7272 C.ar      1 <0>        -0.1287
     23 C18        -1.5707   -9.0425   -0.7073 C.ar      1 <0>         0.1093
     24 C19        -1.7117  -10.1606   -1.5416 C.ar      1 <0>         0.1588
     25 C20        -0.6998  -10.5302   -2.3993 C.ar      1 <0>        -0.1794
     26 C21         0.4818   -9.7794   -2.4366 C.ar      1 <0>         0.1794
     27 N4          1.4973  -10.0975   -3.2547 N.ar      1 <0>        -0.5194
     28 C22         2.5920   -9.3751   -3.2679 C.ar      1 <0>         0.3256
     29 N5          2.7631   -8.3137   -2.4959 N.ar      1 <0>        -0.5577
     30 O3         -2.8592  -10.8868   -1.5038 O.3       1 <0>        -0.2941
     31 C23        -2.9427  -12.0141   -2.3780 C.3       1 <0>         0.0564
     32 C24        -4.2971  -12.7020   -2.1952 C.3       1 <0>        -0.1506
     33 C25        -4.3865  -13.9090   -3.1312 C.3       1 <0>        -0.0020
     34 C26        -5.8040  -15.1525   -1.6130 C.3       1 <0>        -0.0079
     35 C27        -7.2186  -15.7022   -1.4158 C.3       1 <0>        -0.1471
     36 C28        -7.5007  -16.7656   -2.4807 C.3       1 <0>        -0.1398
     37 C29        -7.3247  -16.1452   -3.8695 C.3       1 <0>        -0.1477
     38 C30        -5.9070  -15.5827   -3.9956 C.3       1 <0>        -0.0015
     39 O4         -2.5839   -8.6973    0.1313 O.3       1 <0>        -0.3038
     40 C31        -2.3802   -7.5484    0.9564 C.3       1 <0>         0.0216
     41 H1          6.6397    5.2137   -0.4216 H         1 <0>         0.0680
     42 H2          7.7918    4.5976   -1.6304 H         1 <0>         0.0781
     43 H3          6.0735    4.7871   -2.0543 H         1 <0>         0.0652
     44 H4          6.6271    2.4085   -1.6248 H         1 <0>         0.0735
     45 H5          7.2796    1.7107    0.6634 H         1 <0>         0.0633
     46 H6          8.4962    2.8010   -0.0433 H         1 <0>         0.0733
     47 H7          7.3440    3.4171    1.1654 H         1 <0>         0.0686
     48 H8          6.3476    0.7769   -0.9947 H         1 <0>         0.1332
     49 H9          5.2879   -1.4432   -1.0601 H         1 <0>         0.1408
     50 H10         1.6050    0.2778    0.2637 H         1 <0>         0.1308
     51 H11         2.6653    2.4978    0.3240 H         1 <0>         0.1354
     52 H12         1.8499   -2.0748   -0.7096 H         1 <0>         0.4030
     53 H13         0.8598   -4.6663    0.4171 H         1 <0>         0.0856
     54 H14         1.1308   -3.5290   -0.9296 H         1 <0>         0.0889
     55 H15         1.9431   -5.3458   -2.3633 H         1 <0>         0.0616
     56 H16         0.3620   -5.8162   -1.6938 H         1 <0>         0.0941
     57 H17         3.9521   -6.3150   -1.5013 H         1 <0>         0.0689
     58 H18         3.8770   -7.5117   -0.1852 H         1 <0>         0.0954
     59 H19         4.6578   -5.2309    0.5728 H         1 <0>         0.1082
     60 H20         3.1850   -5.7851    1.4083 H         1 <0>         0.0782
     61 H21        -0.3280   -7.4373   -0.0806 H         1 <0>         0.1573
     62 H22        -0.8167  -11.3925   -3.0389 H         1 <0>         0.1519
     63 H23         3.3895   -9.6593   -3.9384 H         1 <0>         0.1992
     64 H24        -2.8407  -11.6812   -3.4109 H         1 <0>         0.0778
     65 H25        -2.1435  -12.7168   -2.1421 H         1 <0>         0.0777
     66 H26        -4.3991  -13.0349   -1.1623 H         1 <0>         0.1002
     67 H27        -5.0963  -11.9993   -2.4311 H         1 <0>         0.1003
     68 H28        -4.2845  -13.5761   -4.1641 H         1 <0>         0.1340
     69 H29        -3.5873  -14.6117   -2.8953 H         1 <0>         0.1355
     70 H30        -5.0816  -15.9614   -1.5040 H         1 <0>         0.1310
     71 H31        -5.6051  -14.3849   -0.8651 H         1 <0>         0.1299
     72 H32        -7.9407  -14.8913   -1.5110 H         1 <0>         0.0877
     73 H33        -7.3012  -16.1486   -0.4248 H         1 <0>         0.1122
     74 H34        -8.5225  -17.1289   -2.3709 H         1 <0>         0.0942
     75 H35        -6.8042  -17.5956   -2.3615 H         1 <0>         0.0818
     76 H36        -8.0484  -15.3413   -4.0033 H         1 <0>         0.0877
     77 H37        -7.4825  -16.9083   -4.6316 H         1 <0>         0.1125
     78 H38        -5.7830  -15.1275   -4.9782 H         1 <0>         0.1289
     79 H39        -5.1842  -16.3896   -3.8752 H         1 <0>         0.1307
     80 H40        -3.2625   -7.3845    1.5752 H         1 <0>         0.1075
     81 H41        -1.5126   -7.7098    1.5962 H         1 <0>         0.0622
     82 H42        -2.2103   -6.6748    0.3272 H         1 <0>         0.0599
     83 N6         -5.7075  -14.5479   -2.9586 N.4       1 <0>        -0.3926
     84 H43        -6.4386  -13.8336   -3.0559 H         1 <0>         0.4277
@<TRIPOS>BOND
     1    1    2 1
     2    1   41 1
     3    1   42 1
     4    1   43 1
     5    2    3 1
     6    2    4 1
     7    2   44 1
     8    3   45 1
     9    3   46 1
    10    3   47 1
    11    4    5 1
    12    5   10 ar
    13    5    6 ar
    14    6    7 ar
    15    6   48 1
    16    7    8 ar
    17    7   49 1
    18    8    9 ar
    19    8   11 1
    20    9   10 ar
    21    9   50 1
    22   10   51 1
    23   11   12 am
    24   11   52 1
    25   12   13 2
    26   12   14 am
    27   14   19 1
    28   14   15 1
    29   15   16 1
    30   15   53 1
    31   15   54 1
    32   16   17 1
    33   16   55 1
    34   16   56 1
    35   17   18 1
    36   17   20 1
    37   18   19 1
    38   18   57 1
    39   18   58 1
    40   19   59 1
    41   19   60 1
    42   20   29 ar
    43   20   21 ar
    44   21   26 ar
    45   21   22 ar
    46   22   23 ar
    47   22   61 1
    48   23   24 ar
    49   23   39 1
    50   24   25 ar
    51   24   30 1
    52   25   26 ar
    53   25   62 1
    54   26   27 ar
    55   27   28 ar
    56   28   29 ar
    57   28   63 1
    58   30   31 1
    59   31   32 1
    60   31   64 1
    61   31   65 1
    62   32   33 1
    63   32   66 1
    64   32   67 1
    65   33   68 1
    66   33   69 1
    67   33   83 1
    68   34   35 1
    69   34   70 1
    70   34   71 1
    71   34   83 1
    72   35   36 1
    73   35   72 1
    74   35   73 1
    75   36   37 1
    76   36   74 1
    77   36   75 1
    78   37   38 1
    79   37   76 1
    80   37   77 1
    81   38   78 1
    82   38   79 1
    83   38   83 1
    84   39   40 1
    85   40   80 1
    86   40   81 1
    87   40   82 1
    88   83   84 1
@<TRIPOS>MOLECULE
ZINC00362949
   31    33     0     0     0
SMALL
USER_CHARGES

@<TRIPOS>ATOM
      1 C1         -0.0283    1.3829    0.0381 C.ar      1 <0>        -0.0885
      2 C2          1.1275    2.1035    0.0334 C.ar      1 <0>        -0.1174
      3 C3          2.3654    1.4412    0.0101 C.ar      1 <0>        -0.0833
      4 C4          3.5780    2.1570    0.0052 C.ar      1 <0>        -0.0558
      5 C5          4.7449    1.4479   -0.0174 C.ar      1 <0>        -0.1720
      6 C6          4.7117    0.0551   -0.0349 C.ar      1 <0>         0.1307
      7 N1          3.5806   -0.6075   -0.0306 N.ar      1 <0>        -0.4794
      8 C7          2.4048    0.0256   -0.0084 C.ar      1 <0>         0.1082
      9 C8          1.1900   -0.6942   -0.0033 C.ar      1 <0>         0.1682
     10 C9         -0.0048   -0.0083    0.0202 C.ar      1 <0>        -0.1212
     11 N2          1.1995   -2.0901   -0.0215 N.am      1 <0>        -0.6503
     12 C10         0.1392   -2.7649   -0.5083 C.2       1 <0>         0.5597
     13 O1         -0.7816   -2.1607   -1.0232 O.2       1 <0>        -0.5107
     14 C11         0.0960   -4.2389   -0.4162 C.ar      1 <0>        -0.1350
     15 C12         1.1494   -4.9351    0.1798 C.ar      1 <0>        -0.0708
     16 C13         1.1031   -6.3107    0.2633 C.ar      1 <0>        -0.1163
     17 C14         0.0147   -7.0019   -0.2430 C.ar      1 <0>        -0.0077
     18 C15        -1.0331   -6.3168   -0.8358 C.ar      1 <0>        -0.1173
     19 C16        -1.0012   -4.9408   -0.9195 C.ar      1 <0>        -0.0420
     20 Cl1        -0.0361   -8.7337   -0.1348 Cl        1 <0>        -0.0562
     21 H1         -0.9768    1.8988    0.0606 H         1 <0>         0.1336
     22 H2          1.0919    3.1828    0.0471 H         1 <0>         0.1327
     23 H3          3.5850    3.2369    0.0187 H         1 <0>         0.1421
     24 H4          5.6924    1.9662   -0.0221 H         1 <0>         0.1399
     25 H5          5.6422   -0.4929   -0.0527 H         1 <0>         0.1615
     26 H6         -0.9348   -0.5574    0.0248 H         1 <0>         0.1542
     27 H7          1.9691   -2.5743    0.3161 H         1 <0>         0.4187
     28 H8          1.9989   -4.3974    0.5743 H         1 <0>         0.1372
     29 H9          1.9173   -6.8504    0.7240 H         1 <0>         0.1436
     30 H10        -1.8790   -6.8611   -1.2291 H         1 <0>         0.1446
     31 H11        -1.8208   -4.4074   -1.3779 H         1 <0>         0.1490
@<TRIPOS>BOND
     1    1   10 ar
     2    1    2 ar
     3    1   21 1
     4    2    3 ar
     5    2   22 1
     6    3    8 ar
     7    3    4 ar
     8    4    5 ar
     9    4   23 1
    10    5    6 ar
    11    5   24 1
    12    6    7 ar
    13    6   25 1
    14    7    8 ar
    15    8    9 ar
    16    9   10 ar
    17    9   11 1
    18   10   26 1
    19   11   12 am
    20   11   27 1
    21   12   13 2
    22   12   14 1
    23   14   19 ar
    24   14   15 ar
    25   15   16 ar
    26   15   28 1
    27   16   17 ar
    28   16   29 1
    29   17   18 ar
    30   17   20 1
    31   18   19 ar
    32   18   30 1
    33   19   31 1
@<TRIPOS>MOLECULE
ZINC00294376
   31    33     0     0     0
SMALL
USER_CHARGES
2-chloro-N-(8-quinolyl)benzamide
@<TRIPOS>ATOM
      1 C1         -0.3493    5.6067   -0.1697 C.ar      1 <0>        -0.1227
      2 C2         -1.4136    6.2326    0.4562 C.ar      1 <0>        -0.0762
      3 C3         -2.3607    5.4876    1.1344 C.ar      1 <0>        -0.1205
      4 C4         -2.2501    4.1117    1.1915 C.ar      1 <0>         0.0171
      5 C5         -1.1782    3.4743    0.5617 C.ar      1 <0>        -0.1344
      6 C6         -0.2232    4.2346   -0.1166 C.ar      1 <0>        -0.0725
      7 C7         -1.0522    2.0035    0.6183 C.2       1 <0>         0.5533
      8 O1         -1.8825    1.3447    1.2139 O.2       1 <0>        -0.4915
      9 N1         -0.0169    1.3918    0.0097 N.am      1 <0>        -0.6512
     10 C8          0.0412   -0.0023   -0.0362 C.ar      1 <0>         0.1715
     11 C9         -1.1138   -0.7485    0.0510 C.ar      1 <0>        -0.1220
     12 C10        -1.0698   -2.1386    0.0070 C.ar      1 <0>        -0.0873
     13 C11         0.1145   -2.7985   -0.1242 C.ar      1 <0>        -0.1194
     14 C12         1.3134   -2.0737   -0.2166 C.ar      1 <0>        -0.0827
     15 C13         1.2836   -0.6582   -0.1782 C.ar      1 <0>         0.1076
     16 N2          2.4226    0.0342   -0.2614 N.ar      1 <0>        -0.4788
     17 C14         3.5796   -0.5691   -0.3883 C.ar      1 <0>         0.1295
     18 C15         3.6800   -1.9579   -0.4379 C.ar      1 <0>        -0.1724
     19 C16         2.5539   -2.7259   -0.3532 C.ar      1 <0>        -0.0563
     20 Cl1        -3.4394    3.1775    2.0437 Cl        1 <0>        -0.0270
     21 H1          0.3868    6.1951   -0.6973 H         1 <0>         0.1386
     22 H2         -1.5044    7.3079    0.4149 H         1 <0>         0.1399
     23 H3         -3.1883    5.9824    1.6208 H         1 <0>         0.1429
     24 H4          0.6101    3.7486   -0.6021 H         1 <0>         0.1356
     25 H5          0.6859    1.9203   -0.3999 H         1 <0>         0.4172
     26 H6         -2.0652   -0.2481    0.1551 H         1 <0>         0.1549
     27 H7         -1.9881   -2.7026    0.0775 H         1 <0>         0.1329
     28 H8          0.1313   -3.8779   -0.1567 H         1 <0>         0.1320
     29 H9          4.4783    0.0259   -0.4564 H         1 <0>         0.1610
     30 H10         4.6472   -2.4265   -0.5437 H         1 <0>         0.1394
     31 H11         2.6132   -3.8037   -0.3896 H         1 <0>         0.1416
@<TRIPOS>BOND
     1    1    6 ar
     2    1    2 ar
     3    1   21 1
     4    2    3 ar
     5    2   22 1
     6    3    4 ar
     7    3   23 1
     8    4    5 ar
     9    4   20 1
    10    5    6 ar
    11    5    7 1
    12    6   24 1
    13    7    8 2
    14    7    9 am
    15    9   10 1
    16    9   25 1
    17   10   15 ar
    18   10   11 ar
    19   11   12 ar
    20   11   26 1
    21   12   13 ar
    22   12   27 1
    23   13   14 ar
    24   13   28 1
    25   14   19 ar
    26   14   15 ar
    27   15   16 ar
    28   16   17 ar
    29   17   18 ar
    30   17   29 1
    31   18   19 ar
    32   18   30 1
    33   19   31 1
@<TRIPOS>MOLECULE
ZINC14517685
   30    32     0     0     0
SMALL
USER_CHARGES
6-chloro-N-(8-quinolyl)pyridine-3-carboxamide
@<TRIPOS>ATOM
      1 C1         -0.0028    1.0675    0.0361 C.ar      1 <0>        -0.0897
      2 C2         -1.1993    1.7183    0.0478 C.ar      1 <0>        -0.1151
      3 C3         -1.2328    3.1220    0.0526 C.ar      1 <0>        -0.0838
      4 C4         -2.4530    3.8244    0.0699 C.ar      1 <0>        -0.0554
      5 C5         -2.4109    5.1895    0.0685 C.ar      1 <0>        -0.1717
      6 C6         -1.1827    5.8470    0.0502 C.ar      1 <0>         0.1323
      7 N1         -0.0488    5.1892    0.0351 N.ar      1 <0>        -0.4799
      8 C7         -0.0204    3.8539    0.0345 C.ar      1 <0>         0.1095
      9 C8          1.2044    3.1515    0.0172 C.ar      1 <0>         0.1664
     10 C9          1.1962    1.7736    0.0182 C.ar      1 <0>        -0.1192
     11 N2          2.4143    3.8477   -0.0013 N.am      1 <0>        -0.6487
     12 C10         3.5191    3.2655   -0.5083 C.2       1 <0>         0.5665
     13 O1          3.4419    2.1751   -1.0403 O.2       1 <0>        -0.5074
     14 C11         4.8239    3.9525   -0.4175 C.ar      1 <0>        -0.1903
     15 C12         5.9796    3.3579   -0.9407 C.ar      1 <0>         0.0028
     16 C13         7.1760    4.0419   -0.8308 C.ar      1 <0>        -0.1593
     17 C14         7.1938    5.2819   -0.2127 C.ar      1 <0>         0.1992
     18 N3          6.0881    5.8178    0.2708 N.ar      1 <0>        -0.4775
     19 C15         4.9246    5.2068    0.1856 C.ar      1 <0>         0.1600
     20 Cl1         8.6935    6.1449   -0.0723 Cl        1 <0>        -0.0136
     21 H1          0.0156   -0.0123    0.0362 H         1 <0>         0.1340
     22 H2         -2.1209    1.1554    0.0575 H         1 <0>         0.1330
     23 H3         -3.3961    3.2983    0.0836 H         1 <0>         0.1423
     24 H4         -3.3287    5.7586    0.0818 H         1 <0>         0.1403
     25 H5         -1.1643    6.9268    0.0496 H         1 <0>         0.1621
     26 H6          2.1321    1.2349    0.0054 H         1 <0>         0.1540
     27 H7          2.4599    4.7504    0.3508 H         1 <0>         0.4190
     28 H8          5.9369    2.3900   -1.4180 H         1 <0>         0.1622
     29 H9          8.0872    3.6142   -1.2223 H         1 <0>         0.1584
     30 H10         4.0412    5.6791    0.5892 H         1 <0>         0.1696
@<TRIPOS>BOND
     1    1   10 ar
     2    1    2 ar
     3    1   21 1
     4    2    3 ar
     5    2   22 1
     6    3    8 ar
     7    3    4 ar
     8    4    5 ar
     9    4   23 1
    10    5    6 ar
    11    5   24 1
    12    6    7 ar
    13    6   25 1
    14    7    8 ar
    15    8    9 ar
    16    9   10 ar
    17    9   11 1
    18   10   26 1
    19   11   12 am
    20   11   27 1
    21   12   13 2
    22   12   14 1
    23   14   19 ar
    24   14   15 ar
    25   15   16 ar
    26   15   28 1
    27   16   17 ar
    28   16   29 1
    29   17   18 ar
    30   17   20 1
    31   18   19 ar
    32   19   30 1
@<TRIPOS>MOLECULE
ZINC00364197
   30    32     0     0     0
SMALL
USER_CHARGES
5-bromo-N-(8-quinolyl)pyridine-3-carboxamide
@<TRIPOS>ATOM
      1 C1          2.5424    3.6033   -0.3027 C.ar      1 <0>        -0.0940
      2 C2          3.7046    2.8950   -0.2506 C.ar      1 <0>        -0.1091
      3 C3          3.6677    1.4986   -0.1091 C.ar      1 <0>        -0.0871
      4 C4          4.8511    0.7376   -0.0516 C.ar      1 <0>        -0.0546
      5 C5          4.7407   -0.6150    0.1023 C.ar      1 <0>        -0.1726
      6 C6          3.4810   -1.2049    0.1831 C.ar      1 <0>         0.1331
      7 N1          2.3816   -0.4932    0.1245 N.ar      1 <0>        -0.4786
      8 C7          2.4202    0.8345   -0.0158 C.ar      1 <0>         0.1135
      9 C8          1.2322    1.5951   -0.0778 C.ar      1 <0>         0.1603
     10 C9          1.3095    2.9637   -0.2171 C.ar      1 <0>        -0.1054
     11 N2         -0.0111    0.9658    0.0074 N.am      1 <0>        -0.6501
     12 C10        -1.0357    1.5798    0.6315 C.2       1 <0>         0.5672
     13 O1         -0.9002    2.7120    1.0528 O.2       1 <0>        -0.5090
     14 C11        -2.3242    0.8764    0.8039 C.ar      1 <0>        -0.1839
     15 C12        -3.3946    1.5011    1.4556 C.ar      1 <0>         0.0166
     16 C13        -4.5818    0.8009    1.5860 C.ar      1 <0>        -0.1568
     17 C14        -4.6677   -0.4861    1.0831 C.ar      1 <0>         0.1616
     18 N3         -3.6402   -1.0507    0.4784 N.ar      1 <0>        -0.4722
     19 C15        -2.4926   -0.4233    0.3248 C.ar      1 <0>         0.1533
     20 Br1        -6.0673    1.5908    2.4492 Br        1 <0>        -0.0146
     21 H1          2.5783    4.6772   -0.4116 H         1 <0>         0.1344
     22 H2          4.6532    3.4067   -0.3184 H         1 <0>         0.1336
     23 H3          5.8194    1.2116   -0.1155 H         1 <0>         0.1424
     24 H4          5.6287   -1.2275    0.1536 H         1 <0>         0.1403
     25 H5          3.4084   -2.2764    0.2973 H         1 <0>         0.1620
     26 H6          0.4018    3.5473   -0.2609 H         1 <0>         0.1486
     27 H7         -0.1386    0.0885   -0.3862 H         1 <0>         0.4174
     28 H8         -3.2980    2.5047    1.8428 H         1 <0>         0.1609
     29 H9         -5.5908   -1.0369    1.1878 H         1 <0>         0.1748
     30 H10        -1.6743   -0.9193   -0.1760 H         1 <0>         0.1681
@<TRIPOS>BOND
     1    1   10 ar
     2    1    2 ar
     3    1   21 1
     4    2    3 ar
     5    2   22 1
     6    3    8 ar
     7    3    4 ar
     8    4    5 ar
     9    4   23 1
    10    5    6 ar
    11    5   24 1
    12    6    7 ar
    13    6   25 1
    14    7    8 ar
    15    8    9 ar
    16    9   10 ar
    17    9   11 1
    18   10   26 1
    19   11   12 am
    20   11   27 1
    21   12   13 2
    22   12   14 1
    23   14   19 ar
    24   14   15 ar
    25   15   16 ar
    26   15   28 1
    27   16   17 ar
    28   16   20 1
    29   17   18 ar
    30   17   29 1
    31   18   19 ar
    32   19   30 1
@<TRIPOS>MOLECULE
ZINC01507097
   31    33     0     0     0
SMALL
USER_CHARGES
N-(3-quinolyl)benzamide
@<TRIPOS>ATOM
      1 C1          1.0413    3.2954   -0.5539 C.ar      1 <0>        -0.0881
      2 C2          1.1443    2.0493    0.0386 C.ar      1 <0>        -0.1260
      3 C3          2.3451    1.3705    0.0203 C.ar      1 <0>        -0.0853
      4 C4          3.4578    1.9435   -0.5979 C.ar      1 <0>        -0.1401
      5 C5          3.3471    3.2010   -1.1938 C.ar      1 <0>        -0.0557
      6 C6          2.1403    3.8690   -1.1683 C.ar      1 <0>        -0.1262
      7 C7          4.7478    1.2222   -0.6209 C.2       1 <0>         0.5614
      8 O1          5.7152    1.7239   -1.1596 O.2       1 <0>        -0.5152
      9 N1          4.8514    0.0083   -0.0446 N.am      1 <0>        -0.6635
     10 C8          6.0426   -0.7167   -0.1506 C.ar      1 <0>         0.0822
     11 C9          7.2582   -0.0593   -0.1531 C.ar      1 <0>        -0.0609
     12 C10         8.4275   -0.8332   -0.2613 C.ar      1 <0>        -0.0839
     13 C11         9.6992   -0.2361   -0.2712 C.ar      1 <0>        -0.0964
     14 C12        10.8086   -1.0178   -0.3771 C.ar      1 <0>        -0.1112
     15 C13        10.6997   -2.4036   -0.4768 C.ar      1 <0>        -0.1030
     16 C14         9.4841   -3.0150   -0.4708 C.ar      1 <0>        -0.0892
     17 C15         8.3142   -2.2424   -0.3626 C.ar      1 <0>         0.1124
     18 N2          7.1085   -2.8192   -0.3549 N.ar      1 <0>        -0.4547
     19 C16         6.0106   -2.1126   -0.2489 C.ar      1 <0>         0.1221
     20 H1          0.1001    3.8245   -0.5329 H         1 <0>         0.1305
     21 H2          0.2827    1.6073    0.5169 H         1 <0>         0.1322
     22 H3          2.4243    0.3981    0.4835 H         1 <0>         0.1266
     23 H4          4.2042    3.6500   -1.6734 H         1 <0>         0.1380
     24 H5          2.0534    4.8421   -1.6287 H         1 <0>         0.1331
     25 H6          4.0998   -0.3626    0.4436 H         1 <0>         0.4138
     26 H7          7.3087    1.0166   -0.0745 H         1 <0>         0.1551
     27 H8          9.7960    0.8368   -0.1949 H         1 <0>         0.1317
     28 H9         11.7859   -0.5580   -0.3840 H         1 <0>         0.1297
     29 H10        11.5948   -3.0020   -0.5606 H         1 <0>         0.1316
     30 H11         9.4181   -4.0901   -0.5486 H         1 <0>         0.1366
     31 H12         5.0568   -2.6193   -0.2422 H         1 <0>         0.1624
@<TRIPOS>BOND
     1    1    6 ar
     2    1    2 ar
     3    1   20 1
     4    2    3 ar
     5    2   21 1
     6    3    4 ar
     7    3   22 1
     8    4    5 ar
     9    4    7 1
    10    5    6 ar
    11    5   23 1
    12    6   24 1
    13    7    8 2
    14    7    9 am
    15    9   10 1
    16    9   25 1
    17   10   19 ar
    18   10   11 ar
    19   11   12 ar
    20   11   26 1
    21   12   17 ar
    22   12   13 ar
    23   13   14 ar
    24   13   27 1
    25   14   15 ar
    26   14   28 1
    27   15   16 ar
    28   15   29 1
    29   16   17 ar
    30   16   30 1
    31   17   18 ar
    32   18   19 ar
    33   19   31 1
@<TRIPOS>MOLECULE
ZINC01505598
   30    32     0     0     0
SMALL
USER_CHARGES
5-bromo-N-(3-quinolyl)pyridine-3-carboxamide
@<TRIPOS>ATOM
      1 C1         -6.1985   10.8053    0.3922 C.ar      1 <0>        -0.1105
      2 C2         -7.3569   10.0368    0.4915 C.ar      1 <0>        -0.1016
      3 C3         -7.3007    8.6772    0.4854 C.ar      1 <0>        -0.0895
      4 C4         -6.0569    8.0301    0.3771 C.ar      1 <0>         0.1142
      5 C5         -4.8803    8.8138    0.2758 C.ar      1 <0>        -0.0846
      6 C6         -4.9764   10.2154    0.2858 C.ar      1 <0>        -0.0963
      7 C7         -3.6358    8.1678    0.1675 C.ar      1 <0>        -0.0581
      8 C8         -3.6198    6.7860    0.1650 C.ar      1 <0>         0.0791
      9 C9         -4.8243    6.0797    0.2634 C.ar      1 <0>         0.1241
     10 N1         -5.9752    6.6960    0.3694 N.ar      1 <0>        -0.4537
     11 N2         -2.4073    6.0970    0.0589 N.am      1 <0>        -0.6597
     12 C10        -1.2960    6.5963    0.6352 C.2       1 <0>         0.5686
     13 O1         -1.3275    7.6856    1.1739 O.2       1 <0>        -0.5069
     14 C11        -0.0387    5.8193    0.6120 C.ar      1 <0>        -0.1854
     15 C12         1.1214    6.3245    1.2117 C.ar      1 <0>         0.0171
     16 C13         2.2742    5.5599    1.1570 C.ar      1 <0>        -0.1561
     17 C14         2.2402    4.3275    0.5271 C.ar      1 <0>         0.1629
     18 N3          1.1304    3.8753   -0.0244 N.ar      1 <0>        -0.4721
     19 C15         0.0105    4.5678   -0.0031 C.ar      1 <0>         0.1518
     20 Br1         3.8761    6.1886    1.9409 Br        1 <0>        -0.0127
     21 H1         -6.2715   11.8828    0.3994 H         1 <0>         0.1302
     22 H2         -8.3149   10.5284    0.5749 H         1 <0>         0.1322
     23 H3         -8.2083    8.0971    0.5632 H         1 <0>         0.1372
     24 H4         -4.0857   10.8213    0.2094 H         1 <0>         0.1320
     25 H5         -2.7200    8.7348    0.0882 H         1 <0>         0.1553
     26 H6         -4.8037    4.9999    0.2566 H         1 <0>         0.1637
     27 H7         -2.3663    5.2599   -0.4293 H         1 <0>         0.4145
     28 H8          1.1181    7.2876    1.7005 H         1 <0>         0.1610
     29 H9          3.1366    3.7265    0.4870 H         1 <0>         0.1754
     30 H10        -0.8775    4.1637   -0.4661 H         1 <0>         0.1678
@<TRIPOS>BOND
     1    1    6 ar
     2    1    2 ar
     3    1   21 1
     4    2    3 ar
     5    2   22 1
     6    3    4 ar
     7    3   23 1
     8    4   10 ar
     9    4    5 ar
    10    5    6 ar
    11    5    7 ar
    12    6   24 1
    13    7    8 ar
    14    7   25 1
    15    8    9 ar
    16    8   11 1
    17    9   10 ar
    18    9   26 1
    19   11   12 am
    20   11   27 1
    21   12   13 2
    22   12   14 1
    23   14   19 ar
    24   14   15 ar
    25   15   16 ar
    26   15   28 1
    27   16   17 ar
    28   16   20 1
    29   17   18 ar
    30   17   29 1
    31   18   19 ar
    32   19   30 1
@<TRIPOS>MOLECULE
ZINC00251004
   33    35     0     0     0
SMALL
USER_CHARGES
4-nitro-N-(8-quinolyl)benzamide
@<TRIPOS>ATOM
      1 C1         -0.0844    1.2178    0.6420 C.ar      1 <0>        -0.0906
      2 C2         -1.2088    1.7353    0.0736 C.ar      1 <0>        -0.1124
      3 C3         -1.1659    2.9976   -0.5398 C.ar      1 <0>        -0.0843
      4 C4         -2.3120    3.5627   -1.1313 C.ar      1 <0>        -0.0543
      5 C5         -2.1963    4.7920   -1.7150 C.ar      1 <0>        -0.1716
      6 C6         -0.9681    5.4497   -1.7131 C.ar      1 <0>         0.1334
      7 N1          0.0965    4.9201   -1.1609 N.ar      1 <0>        -0.4817
      8 C7          0.0511    3.7213   -0.5739 C.ar      1 <0>         0.1105
      9 C8          1.2015    3.1564    0.0187 C.ar      1 <0>         0.1625
     10 C9          1.1181    1.9176    0.6161 C.ar      1 <0>        -0.1170
     11 N2          2.4143    3.8477   -0.0008 N.am      1 <0>        -0.6457
     12 C10         3.5769    3.1714    0.0857 C.2       1 <0>         0.5552
     13 O1          3.5748    1.9557    0.0794 O.2       1 <0>        -0.5001
     14 C11         4.8543    3.9078    0.1883 C.ar      1 <0>        -0.0853
     15 C12         4.8607    5.3037    0.1901 C.ar      1 <0>        -0.0842
     16 C13         6.0561    5.9848    0.2905 C.ar      1 <0>        -0.0585
     17 C14         7.2479    5.2875    0.3792 C.ar      1 <0>        -0.0195
     18 C15         7.2490    3.9038    0.3731 C.ar      1 <0>        -0.0590
     19 C16         6.0603    3.2104    0.2781 C.ar      1 <0>        -0.0551
     20 N3          8.5272    6.0249    0.4814 N.pl3     1 <0>         0.0214
     21 O2          9.5778    5.4137    0.5600 O.2       1 <0>        -0.1481
     22 O3          8.5293    7.2429    0.4869 O.3       1 <0>        -0.1490
     23 H1         -0.1257    0.2483    1.1160 H         1 <0>         0.1349
     24 H2         -2.1332    1.1774    0.0985 H         1 <0>         0.1340
     25 H3         -3.2562    3.0385   -1.1239 H         1 <0>         0.1430
     26 H4         -3.0561    5.2539   -2.1774 H         1 <0>         0.1409
     27 H5         -0.8911    6.4214   -2.1780 H         1 <0>         0.1624
     28 H6          1.9971    1.4843    1.0701 H         1 <0>         0.1540
     29 H7          2.4202    4.8147   -0.0767 H         1 <0>         0.4198
     30 H8          3.9315    5.8492    0.1163 H         1 <0>         0.1520
     31 H9          6.0621    7.0648    0.2957 H         1 <0>         0.1638
     32 H10         8.1827    3.3655    0.4427 H         1 <0>         0.1647
     33 H11         6.0625    2.1304    0.2735 H         1 <0>         0.1641
@<TRIPOS>BOND
     1    1   10 ar
     2    1    2 ar
     3    1   23 1
     4    2    3 ar
     5    2   24 1
     6    3    8 ar
     7    3    4 ar
     8    4    5 ar
     9    4   25 1
    10    5    6 ar
    11    5   26 1
    12    6    7 ar
    13    6   27 1
    14    7    8 ar
    15    8    9 ar
    16    9   10 ar
    17    9   11 1
    18   10   28 1
    19   11   12 am
    20   11   29 1
    21   12   13 2
    22   12   14 1
    23   14   19 ar
    24   14   15 ar
    25   15   16 ar
    26   15   30 1
    27   16   17 ar
    28   16   31 1
    29   17   18 ar
    30   17   20 1
    31   18   19 ar
    32   18   32 1
    33   19   33 1
    34   20   21 2
    35   20   22 1
@<TRIPOS>MOLECULE
ZINC00033019
   33    35     0     0     0
SMALL
USER_CHARGES

@<TRIPOS>ATOM
      1 C1          0.1542    1.3801    0.6402 C.ar      1 <0>        -0.0896
      2 C2          1.1507    2.1034    0.0579 C.ar      1 <0>        -0.1134
      3 C3          2.2135    1.4441   -0.5801 C.ar      1 <0>        -0.0839
      4 C4          3.2591    2.1628   -1.1909 C.ar      1 <0>        -0.0543
      5 C5          4.2610    1.4564   -1.7928 C.ar      1 <0>        -0.1721
      6 C6          4.2281    0.0635   -1.7900 C.ar      1 <0>         0.1326
      7 N1          3.2528   -0.6018   -1.2202 N.ar      1 <0>        -0.4816
      8 C7          2.2431    0.0285   -0.6144 C.ar      1 <0>         0.1101
      9 C8          1.1957   -0.6942   -0.0024 C.ar      1 <0>         0.1637
     10 C9          0.1702   -0.0111    0.6143 C.ar      1 <0>        -0.1175
     11 N2          1.1995   -2.0901   -0.0215 N.am      1 <0>        -0.6471
     12 C10         0.0401   -2.7686    0.0872 C.2       1 <0>         0.5606
     13 O1         -1.0168   -2.1680    0.1007 O.2       1 <0>        -0.5017
     14 C11         0.0535   -4.2431    0.1901 C.ar      1 <0>        -0.1334
     15 C12         1.2658   -4.9355    0.1807 C.ar      1 <0>        -0.0362
     16 C13         1.2713   -6.3115    0.2770 C.ar      1 <0>        -0.1182
     17 C14         0.0787   -7.0055    0.3823 C.ar      1 <0>        -0.0277
     18 C15        -1.1260   -6.3255    0.3923 C.ar      1 <0>        -0.0544
     19 C16        -1.1453   -4.9488    0.3029 C.ar      1 <0>         0.0048
     20 N3         -2.3967   -7.0762    0.5048 N.pl3     1 <0>         0.0309
     21 O2         -2.3811   -8.2822    0.5879 O.2       1 <0>        -0.1493
     22 O3         -3.4503   -6.4833    0.5136 O.3       1 <0>        -0.1476
     23 H1         -0.6579    1.8938    1.1331 H         1 <0>         0.1350
     24 H2          1.1231    3.1827    0.0865 H         1 <0>         0.1339
     25 H3          3.2683    3.2427   -1.1838 H         1 <0>         0.1429
     26 H4          5.0777    1.9769   -2.2708 H         1 <0>         0.1406
     27 H5          5.0268   -0.4824   -2.2702 H         1 <0>         0.1620
     28 H6         -0.6312   -0.5624    1.0835 H         1 <0>         0.1543
     29 H7          2.0365   -2.5716   -0.1131 H         1 <0>         0.4187
     30 H8          2.1972   -4.3951    0.0978 H         1 <0>         0.1479
     31 H9          2.2084   -6.8484    0.2698 H         1 <0>         0.1590
     32 H10         0.0885   -8.0829    0.4567 H         1 <0>         0.1621
     33 H11        -2.0862   -4.4188    0.3156 H         1 <0>         0.1690
@<TRIPOS>BOND
     1    1   10 ar
     2    1    2 ar
     3    1   23 1
     4    2    3 ar
     5    2   24 1
     6    3    8 ar
     7    3    4 ar
     8    4    5 ar
     9    4   25 1
    10    5    6 ar
    11    5   26 1
    12    6    7 ar
    13    6   27 1
    14    7    8 ar
    15    8    9 ar
    16    9   10 ar
    17    9   11 1
    18   10   28 1
    19   11   12 am
    20   11   29 1
    21   12   13 2
    22   12   14 1
    23   14   19 ar
    24   14   15 ar
    25   15   16 ar
    26   15   30 1
    27   16   17 ar
    28   16   31 1
    29   17   18 ar
    30   17   32 1
    31   18   19 ar
    32   18   20 1
    33   19   33 1
    34   20   21 2
    35   20   22 1
@<TRIPOS>MOLECULE
ZINC21810129
   32    34     0     0     0
SMALL
USER_CHARGES
5-chloro-2-hydroxy-N-(8-quinolyl)benzamide
@<TRIPOS>ATOM
      1 C1          2.5418    3.6041   -0.3023 C.ar      1 <0>        -0.0903
      2 C2          3.7041    2.8960   -0.2510 C.ar      1 <0>        -0.1177
      3 C3          3.6676    1.4995   -0.1098 C.ar      1 <0>        -0.0857
      4 C4          4.8512    0.7387   -0.0531 C.ar      1 <0>        -0.0567
      5 C5          4.7409   -0.6154    0.0856 C.ar      1 <0>        -0.1732
      6 C6          3.4814   -1.2056    0.1668 C.ar      1 <0>         0.1290
      7 N1          2.3819   -0.4937    0.1137 N.ar      1 <0>        -0.4758
      8 C7          2.4203    0.8351   -0.0154 C.ar      1 <0>         0.1100
      9 C8          1.2321    1.5954   -0.0774 C.ar      1 <0>         0.1747
     10 C9          1.3090    2.9641   -0.2166 C.ar      1 <0>        -0.1146
     11 N2         -0.0111    0.9658    0.0074 N.am      1 <0>        -0.6704
     12 C10        -1.0360    1.5794    0.6314 C.2       1 <0>         0.5649
     13 O1         -0.9009    2.7119    1.0530 O.2       1 <0>        -0.4997
     14 C11        -2.3217    0.8771    0.8031 C.ar      1 <0>        -0.1733
     15 C12        -2.4813   -0.4243    0.3202 C.ar      1 <0>        -0.0330
     16 C13        -3.6857   -1.0754    0.4844 C.ar      1 <0>        -0.0886
     17 C14        -4.7395   -0.4442    1.1273 C.ar      1 <0>        -0.0381
     18 C15        -4.5943    0.8415    1.6088 C.ar      1 <0>        -0.2122
     19 C16        -3.3882    1.5092    1.4565 C.ar      1 <0>         0.2259
     20 O2         -3.2428    2.7707    1.9344 O.3       1 <0>        -0.4693
     21 Cl1        -3.8832   -2.6923   -0.1159 Cl        1 <0>        -0.0608
     22 H1          2.5773    4.6780   -0.4107 H         1 <0>         0.1320
     23 H2          4.6526    3.4079   -0.3193 H         1 <0>         0.1315
     24 H3          5.8193    1.2130   -0.1180 H         1 <0>         0.1409
     25 H4          5.6290   -1.2281    0.1320 H         1 <0>         0.1388
     26 H5          3.4091   -2.2775    0.2768 H         1 <0>         0.1605
     27 H6          0.4012    3.5475   -0.2601 H         1 <0>         0.1474
     28 H7         -0.1541   -0.0311   -0.4351 H         1 <0>         0.4376
     29 H8         -1.6626   -0.9197   -0.1805 H         1 <0>         0.1422
     30 H9         -5.6796   -0.9611    1.2517 H         1 <0>         0.1421
     31 H10        -5.4197    1.3266    2.1085 H         1 <0>         0.1457
     32 H11        -4.0814    3.2647    2.4469 H         1 <0>         0.4364
@<TRIPOS>BOND
     1    1   10 ar
     2    1    2 ar
     3    1   22 1
     4    2    3 ar
     5    2   23 1
     6    3    8 ar
     7    3    4 ar
     8    4    5 ar
     9    4   24 1
    10    5    6 ar
    11    5   25 1
    12    6    7 ar
    13    6   26 1
    14    7    8 ar
    15    8    9 ar
    16    9   10 ar
    17    9   11 1
    18   10   27 1
    19   11   12 am
    20   11   28 1
    21   12   13 2
    22   12   14 1
    23   14   19 ar
    24   14   15 ar
    25   15   16 ar
    26   15   29 1
    27   16   17 ar
    28   16   21 1
    29   17   18 ar
    30   17   30 1
    31   18   19 ar
    32   18   31 1
    33   19   20 1
    34   20   32 1
@<TRIPOS>MOLECULE
ZINC19838123
   35    37     0     0     0
SMALL
USER_CHARGES
2-hydroxy-4-methyl-N-(8-quinolyl)benzamide
@<TRIPOS>ATOM
      1 C1         -2.5584    3.8612    0.0928 C.3       1 <0>        -0.1259
      2 C2         -1.2379    3.1356    0.0659 C.ar      1 <0>        -0.0132
      3 C3         -1.2135    1.7504    0.0481 C.ar      1 <0>        -0.1731
      4 C4         -0.0119    1.0765    0.0287 C.ar      1 <0>        -0.0381
      5 C5          1.1881    1.7921    0.0162 C.ar      1 <0>        -0.1920
      6 C6          1.1590    3.1933    0.0290 C.ar      1 <0>         0.2240
      7 C7         -0.0597    3.8551    0.0538 C.ar      1 <0>        -0.2299
      8 O1          2.3175    3.8990    0.0175 O.3       1 <0>        -0.4739
      9 C8          2.4780    1.0771   -0.0096 C.2       1 <0>         0.5633
     10 O2          3.5202    1.7035   -0.0204 O.2       1 <0>        -0.5049
     11 N1          2.5014   -0.2704   -0.0214 N.am      1 <0>        -0.6717
     12 C9          3.7170   -0.9464   -0.1410 C.ar      1 <0>         0.1774
     13 C10         4.8574   -0.4316    0.4362 C.ar      1 <0>        -0.1171
     14 C11         6.0752   -1.0956    0.3248 C.ar      1 <0>        -0.0889
     15 C12         6.1730   -2.2707   -0.3569 C.ar      1 <0>        -0.1204
     16 C13         5.0335   -2.8277   -0.9592 C.ar      1 <0>        -0.0849
     17 C14         3.7862   -2.1658   -0.8495 C.ar      1 <0>         0.1084
     18 N2          2.7013   -2.6904   -1.4255 N.ar      1 <0>        -0.4751
     19 C15         2.7601   -3.8194   -2.0892 C.ar      1 <0>         0.1273
     20 C16         3.9535   -4.5244   -2.2310 C.ar      1 <0>        -0.1734
     21 C17         5.1013   -4.0409   -1.6708 C.ar      1 <0>        -0.0573
     22 H1         -3.3791    3.1288    0.0992 H         1 <0>         0.0716
     23 H2         -2.6440    4.5000   -0.7986 H         1 <0>         0.0764
     24 H3         -2.6160    4.4844    0.9974 H         1 <0>         0.0765
     25 H4         -2.1405    1.1964    0.0532 H         1 <0>         0.1311
     26 H5          0.0024   -0.0034    0.0187 H         1 <0>         0.1321
     27 H6         -0.0869    4.9348    0.0633 H         1 <0>         0.1342
     28 H7          2.2918    4.9987    0.0276 H         1 <0>         0.4316
     29 H8          1.5627   -0.8375    0.0632 H         1 <0>         0.4368
     30 H9          4.8054    0.4991    0.9816 H         1 <0>         0.1474
     31 H10         6.9557   -0.6732    0.7859 H         1 <0>         0.1315
     32 H11         7.1258   -2.7733   -0.4343 H         1 <0>         0.1311
     33 H12         1.8600   -4.2134   -2.5374 H         1 <0>         0.1601
     34 H13         3.9707   -5.4524   -2.7831 H         1 <0>         0.1384
     35 H14         6.0351   -4.5740   -1.7711 H         1 <0>         0.1406
@<TRIPOS>BOND
     1    1    2 1
     2    1   22 1
     3    1   23 1
     4    1   24 1
     5    2    7 ar
     6    2    3 ar
     7    3    4 ar
     8    3   25 1
     9    4    5 ar
    10    4   26 1
    11    5    6 ar
    12    5    9 1
    13    6    7 ar
    14    6    8 1
    15    7   27 1
    16    8   28 1
    17    9   10 2
    18    9   11 am
    19   11   12 1
    20   11   29 1
    21   12   17 ar
    22   12   13 ar
    23   13   14 ar
    24   13   30 1
    25   14   15 ar
    26   14   31 1
    27   15   16 ar
    28   15   32 1
    29   16   21 ar
    30   16   17 ar
    31   17   18 ar
    32   18   19 ar
    33   19   20 ar
    34   19   33 1
    35   20   21 ar
    36   20   34 1
    37   21   35 1
@<TRIPOS>MOLECULE
ZINC19838120
   35    37     0     0     0
SMALL
USER_CHARGES
2-hydroxy-3-methyl-N-(8-quinolyl)benzamide
@<TRIPOS>ATOM
      1 C1          3.7021   -4.9471   -0.5975 C.3       1 <0>        -0.1024
      2 C2          2.3989   -4.2017   -0.4667 C.ar      1 <0>        -0.1446
      3 C3          1.2051   -4.8961   -0.4580 C.ar      1 <0>        -0.0449
      4 C4          0.0021   -4.2201   -0.3383 C.ar      1 <0>        -0.1715
      5 C5         -0.0156   -2.8465   -0.2262 C.ar      1 <0>        -0.0452
      6 C6          1.1844   -2.1317   -0.2336 C.ar      1 <0>        -0.2522
      7 C7          2.3996   -2.8191   -0.3607 C.ar      1 <0>         0.2411
      8 O1          3.5711   -2.1353   -0.3743 O.3       1 <0>        -0.5122
      9 C8          1.1728   -0.6615   -0.1144 C.2       1 <0>         0.5817
     10 O2          2.2196   -0.0427   -0.1213 O.2       1 <0>        -0.5357
     11 N1          0.0021   -0.0041    0.0020 N.am      1 <0>        -0.6558
     12 C9         -0.0180    1.3919   -0.0015 C.ar      1 <0>         0.1711
     13 C10         0.9955    2.0992   -0.6106 C.ar      1 <0>        -0.1239
     14 C11         0.9874    3.4907   -0.6216 C.ar      1 <0>        -0.0884
     15 C12        -0.0213    4.1903   -0.0315 C.ar      1 <0>        -0.1181
     16 C13        -1.0723    3.5059    0.5996 C.ar      1 <0>        -0.0832
     17 C14        -1.0800    2.0897    0.6140 C.ar      1 <0>         0.1085
     18 N2         -2.0758    1.4355    1.2177 N.ar      1 <0>        -0.4794
     19 C15        -3.0618    2.0777    1.7956 C.ar      1 <0>         0.1310
     20 C16        -3.1187    3.4697    1.8136 C.ar      1 <0>        -0.1718
     21 C17        -2.1296    4.1997    1.2187 C.ar      1 <0>        -0.0560
     22 H1          3.5016   -6.0263   -0.6689 H         1 <0>         0.0657
     23 H2          4.3284   -4.7481    0.2846 H         1 <0>         0.0698
     24 H3          4.2274   -4.6109   -1.5036 H         1 <0>         0.0698
     25 H4          1.2096   -5.9725   -0.5454 H         1 <0>         0.1341
     26 H5         -0.9262   -4.7719   -0.3325 H         1 <0>         0.1316
     27 H6         -0.9559   -2.3237   -0.1323 H         1 <0>         0.1256
     28 H7          3.5688   -1.0385   -0.2901 H         1 <0>         0.4450
     29 H8         -0.9376   -0.5674    0.0998 H         1 <0>         0.4473
     30 H9          1.8067    1.5670   -1.0851 H         1 <0>         0.1534
     31 H10         1.7925    4.0237   -1.1056 H         1 <0>         0.1333
     32 H11        -0.0124    5.2702   -0.0486 H         1 <0>         0.1324
     33 H12        -3.8508    1.5129    2.2699 H         1 <0>         0.1617
     34 H13        -3.9442    3.9708    2.2970 H         1 <0>         0.1400
     35 H14        -2.1575    5.2794    1.2234 H         1 <0>         0.1420
@<TRIPOS>BOND
     1    1    2 1
     2    1   22 1
     3    1   23 1
     4    1   24 1
     5    2    7 ar
     6    2    3 ar
     7    3    4 ar
     8    3   25 1
     9    4    5 ar
    10    4   26 1
    11    5    6 ar
    12    5   27 1
    13    6    7 ar
    14    6    9 1
    15    7    8 1
    16    8   28 1
    17    9   10 2
    18    9   11 am
    19   11   12 1
    20   11   29 1
    21   12   17 ar
    22   12   13 ar
    23   13   14 ar
    24   13   30 1
    25   14   15 ar
    26   14   31 1
    27   15   16 ar
    28   15   32 1
    29   16   21 ar
    30   16   17 ar
    31   17   18 ar
    32   18   19 ar
    33   19   20 ar
    34   19   33 1
    35   20   21 ar
    36   20   34 1
    37   21   35 1
@<TRIPOS>MOLECULE
ZINC52076544
   35    37     0     0     0
SMALL
USER_CHARGES

@<TRIPOS>ATOM
      1 C1         -0.5265    1.4915    0.0558 C.3       1 <0>        -0.1108
      2 C2         -0.3223   -0.0015    0.0373 C.ar      1 <0>        -0.1197
      3 C3         -0.1437   -0.6583   -1.1644 C.ar      1 <0>        -0.0742
      4 C4          0.0447   -2.0302   -1.1919 C.ar      1 <0>        -0.1311
      5 C5          0.0558   -2.7543   -0.0192 C.ar      1 <0>        -0.0764
      6 C6         -0.1232   -2.1027    1.2033 C.ar      1 <0>        -0.1679
      7 C7         -0.3083   -0.7133    1.2272 C.ar      1 <0>         0.1716
      8 O1         -0.4780   -0.0687    2.4087 O.3       1 <0>        -0.4743
      9 C8         -0.1129   -2.8715    2.4622 C.2       1 <0>         0.5606
     10 O2         -0.2691   -2.3007    3.5244 O.2       1 <0>        -0.4992
     11 N1          0.0695   -4.2065    2.4350 N.am      1 <0>        -0.6660
     12 C9          0.1898   -4.9204    3.6316 C.ar      1 <0>         0.0875
     13 C10         0.7849   -4.3351    4.7330 C.ar      1 <0>        -0.0624
     14 C11         0.8815   -5.0940    5.9130 C.ar      1 <0>        -0.0815
     15 C12         1.4728   -4.5669    7.0732 C.ar      1 <0>        -0.0970
     16 C13         1.5481   -5.3314    8.1970 C.ar      1 <0>        -0.1108
     17 C14         1.0464   -6.6315    8.2118 C.ar      1 <0>        -0.1037
     18 C15         0.4678   -7.1739    7.1061 C.ar      1 <0>        -0.0889
     19 C16         0.3701   -6.4159    5.9258 C.ar      1 <0>         0.1113
     20 N2         -0.1952   -6.9255    4.8271 N.ar      1 <0>        -0.4541
     21 C17        -0.2970   -6.2296    3.7221 C.ar      1 <0>         0.1204
     22 H1          0.4402    1.9895    0.1308 H         1 <0>         0.0758
     23 H2         -1.0245    1.8015   -0.8629 H         1 <0>         0.0699
     24 H3         -1.1427    1.7633    0.9127 H         1 <0>         0.0708
     25 H4         -0.1513   -0.0989   -2.0882 H         1 <0>         0.1343
     26 H5          0.1831   -2.5349   -2.1366 H         1 <0>         0.1350
     27 H6          0.2023   -3.8240   -0.0455 H         1 <0>         0.1300
     28 H7         -1.4004   -0.0005    2.6906 H         1 <0>         0.3957
     29 H8          0.1173   -4.6723    1.5855 H         1 <0>         0.4125
     30 H9          1.1647   -3.3250    4.6888 H         1 <0>         0.1512
     31 H10         1.8658   -3.5609    7.0735 H         1 <0>         0.1315
     32 H11         2.0029   -4.9254    9.0884 H         1 <0>         0.1296
     33 H12         1.1184   -7.2183    9.1156 H         1 <0>         0.1315
     34 H13         0.0842   -8.1831    7.1352 H         1 <0>         0.1365
     35 H14        -0.7647   -6.6785    2.8582 H         1 <0>         0.1621
@<TRIPOS>BOND
     1    1    2 1
     2    1   22 1
     3    1   23 1
     4    1   24 1
     5    2    7 ar
     6    2    3 ar
     7    3    4 ar
     8    3   25 1
     9    4    5 ar
    10    4   26 1
    11    5    6 ar
    12    5   27 1
    13    6    7 ar
    14    6    9 1
    15    7    8 1
    16    8   28 1
    17    9   10 2
    18    9   11 am
    19   11   12 1
    20   11   29 1
    21   12   21 ar
    22   12   13 ar
    23   13   14 ar
    24   13   30 1
    25   14   19 ar
    26   14   15 ar
    27   15   16 ar
    28   15   31 1
    29   16   17 ar
    30   16   32 1
    31   17   18 ar
    32   17   33 1
    33   18   19 ar
    34   18   34 1
    35   19   20 ar
    36   20   21 ar
    37   21   35 1
@<TRIPOS>MOLECULE
ZINC57524293
   36    38     0     0     0
SMALL
USER_CHARGES

@<TRIPOS>ATOM
      1 C1         -0.2875    1.4782   -0.1531 C.3       1 <0>         0.0207
      2 O1         -0.5676    0.0890   -0.3366 O.3       1 <0>        -0.2991
      3 C2         -0.0342   -0.5084   -1.4356 C.ar      1 <0>         0.1148
      4 C3          0.7340    0.2233   -2.2963 C.ar      1 <0>        -0.1509
      5 C4          1.2840   -0.3908   -3.4277 C.ar      1 <0>        -0.1789
      6 C5          1.0416   -1.7651   -3.6737 C.ar      1 <0>         0.2021
      7 C6          0.2513   -2.4958   -2.7783 C.ar      1 <0>        -0.1833
      8 C7         -0.2739   -1.8695   -1.6696 C.ar      1 <0>         0.1657
      9 O2         -1.0368   -2.5773   -0.7965 O.3       1 <0>        -0.2962
     10 C8         -1.2448   -3.9603   -1.0898 C.3       1 <0>         0.0197
     11 N1          1.5812   -2.3296   -4.7656 N.ar      1 <0>        -0.5363
     12 C9          2.3179   -1.6195   -5.5863 C.ar      1 <0>         0.3398
     13 N2          2.5714   -0.3343   -5.3971 N.ar      1 <0>        -0.5798
     14 C10         2.0870    0.3212   -4.3503 C.ar      1 <0>         0.4630
     15 N3          2.3588    1.6617   -4.1660 N.pl3     1 <0>        -0.6323
     16 C11         3.0388    2.3804   -5.1559 C.ar      1 <0>         0.1450
     17 C12         3.0997    1.8903   -6.4535 C.ar      1 <0>        -0.1057
     18 C13         3.7710    2.6018   -7.4288 C.ar      1 <0>        -0.0729
     19 C14         4.3830    3.8023   -7.1148 C.ar      1 <0>        -0.0893
     20 C15         4.3250    4.2947   -5.8231 C.ar      1 <0>        -0.1008
     21 C16         3.6500    3.5899   -4.8433 C.ar      1 <0>         0.0651
     22 F1          3.5884    4.0733   -3.5832 F         1 <0>        -0.1335
     23 Br1         5.3012    4.7718   -8.4537 Br        1 <0>        -0.0352
     24 H1          0.7897    1.6240   -0.0719 H         1 <0>         0.0581
     25 H2         -0.6671    2.0411   -1.0058 H         1 <0>         0.0580
     26 H3         -0.7713    1.8291    0.7584 H         1 <0>         0.1082
     27 H4          0.9158    1.2705   -2.1049 H         1 <0>         0.1396
     28 H5          0.0584   -3.5439   -2.9535 H         1 <0>         0.1577
     29 H6         -0.2836   -4.4735   -1.1216 H         1 <0>         0.0627
     30 H7         -1.8692   -4.4061   -0.3156 H         1 <0>         0.1081
     31 H8         -1.7400   -4.0563   -2.0561 H         1 <0>         0.0628
     32 H9          2.7366   -2.1054   -6.4552 H         1 <0>         0.2014
     33 H10         2.0786    2.1058   -3.3504 H         1 <0>         0.4241
     34 H11         2.6228    0.9532   -6.7000 H         1 <0>         0.1829
     35 H12         3.8186    2.2201   -8.4380 H         1 <0>         0.1449
     36 H13         4.8039    5.2319   -5.5808 H         1 <0>         0.1497
@<TRIPOS>BOND
     1    1    2 1
     2    1   24 1
     3    1   25 1
     4    1   26 1
     5    2    3 1
     6    3    8 ar
     7    3    4 ar
     8    4    5 ar
     9    4   27 1
    10    5   14 ar
    11    5    6 ar
    12    6    7 ar
    13    6   11 ar
    14    7    8 ar
    15    7   28 1
    16    8    9 1
    17    9   10 1
    18   10   29 1
    19   10   30 1
    20   10   31 1
    21   11   12 ar
    22   12   13 ar
    23   12   32 1
    24   13   14 ar
    25   14   15 1
    26   15   16 1
    27   15   33 1
    28   16   21 ar
    29   16   17 ar
    30   17   18 ar
    31   17   34 1
    32   18   19 ar
    33   18   35 1
    34   19   20 ar
    35   19   23 1
    36   20   21 ar
    37   20   36 1
    38   21   22 1
@<TRIPOS>MOLECULE
ZINC03828650
   37    39     0     0     0
SMALL
USER_CHARGES
3-(6,7-dimethoxyquinazolin-4-yl)aminophenol
@<TRIPOS>ATOM
      1 C1          5.8804    3.1956   -0.9435 C.3       1 <0>         0.0217
      2 O1          4.6825    3.9745   -0.9222 O.3       1 <0>        -0.3002
      3 C2          3.5194    3.3117   -0.6836 C.ar      1 <0>         0.1101
      4 C3          3.5412    1.9613   -0.4787 C.ar      1 <0>        -0.1480
      5 C4          2.3443    1.2779   -0.2335 C.ar      1 <0>        -0.1833
      6 C5          1.1190    1.9888   -0.1989 C.ar      1 <0>         0.2011
      7 C6          1.1201    3.3727   -0.4112 C.ar      1 <0>        -0.1836
      8 C7          2.3111    4.0216   -0.6510 C.ar      1 <0>         0.1633
      9 O2          2.3150    5.3643   -0.8578 O.3       1 <0>        -0.2974
     10 C8          1.0521    6.0314   -0.8122 C.3       1 <0>         0.0201
     11 N1         -0.0140    1.3095    0.0388 N.ar      1 <0>        -0.5426
     12 C9          0.0167    0.0128    0.2347 C.ar      1 <0>         0.3433
     13 N2          1.1365   -0.6924    0.2117 N.ar      1 <0>        -0.5780
     14 C10         2.3117   -0.1199   -0.0145 C.ar      1 <0>         0.4635
     15 N3          3.4719   -0.8679   -0.0362 N.pl3     1 <0>        -0.6413
     16 C11         3.4074   -2.2607    0.0620 C.ar      1 <0>         0.1685
     17 C12         4.4003   -2.9571    0.7404 C.ar      1 <0>        -0.1562
     18 C13         4.3341   -4.3330    0.8410 C.ar      1 <0>        -0.0823
     19 C14         3.2861   -5.0215    0.2594 C.ar      1 <0>        -0.1601
     20 C15         2.2945   -4.3319   -0.4238 C.ar      1 <0>         0.1255
     21 C16         2.3546   -2.9506   -0.5230 C.ar      1 <0>        -0.1360
     22 O3          1.2653   -5.0104   -0.9958 O.3       1 <0>        -0.4957
     23 H1          6.7326    3.8451   -1.1435 H         1 <0>         0.1069
     24 H2          6.0140    2.7080    0.0222 H         1 <0>         0.0572
     25 H3          5.8085    2.4396   -1.7254 H         1 <0>         0.0573
     26 H4          4.4774    1.4235   -0.5055 H         1 <0>         0.1390
     27 H5          0.1936    3.9273   -0.3878 H         1 <0>         0.1562
     28 H6          1.1970    7.0965   -0.9929 H         1 <0>         0.1074
     29 H7          0.3955    5.6190   -1.5783 H         1 <0>         0.0622
     30 H8          0.6004    5.8875    0.1693 H         1 <0>         0.0622
     31 H9         -0.9135   -0.5026    0.4230 H         1 <0>         0.1980
     32 H10         4.3318   -0.4269   -0.1195 H         1 <0>         0.4196
     33 H11         5.2222   -2.4219    1.1925 H         1 <0>         0.1270
     34 H12         5.1046   -4.8723    1.3718 H         1 <0>         0.1322
     35 H13         3.2391   -6.0977    0.3366 H         1 <0>         0.1302
     36 H14         1.5840   -2.4122   -1.0546 H         1 <0>         0.1408
     37 H15         1.4317   -5.2806   -1.9092 H         1 <0>         0.3915
@<TRIPOS>BOND
     1    1    2 1
     2    1   23 1
     3    1   24 1
     4    1   25 1
     5    2    3 1
     6    3    8 ar
     7    3    4 ar
     8    4    5 ar
     9    4   26 1
    10    5   14 ar
    11    5    6 ar
    12    6    7 ar
    13    6   11 ar
    14    7    8 ar
    15    7   27 1
    16    8    9 1
    17    9   10 1
    18   10   28 1
    19   10   29 1
    20   10   30 1
    21   11   12 ar
    22   12   13 ar
    23   12   31 1
    24   13   14 ar
    25   14   15 1
    26   15   16 1
    27   15   32 1
    28   16   21 ar
    29   16   17 ar
    30   17   18 ar
    31   17   33 1
    32   18   19 ar
    33   18   34 1
    34   19   20 ar
    35   19   35 1
    36   20   21 ar
    37   20   22 1
    38   21   36 1
    39   22   37 1
@<TRIPOS>MOLECULE
ZINC01489430
   51    54     0     0     0
SMALL
USER_CHARGES

@<TRIPOS>ATOM
      1 C1          5.9578   12.1378   -3.8511 C.3       1 <0>        -0.0764
      2 C2          4.7491   12.3338   -2.9727 C.2       1 <0>        -0.0173
      3 C3          3.9929   11.3639   -2.4102 C.2       1 <0>        -0.2264
      4 C4          2.9965   12.0785   -1.6936 C.2       1 <0>         0.2607
      5 N1          3.2414   13.3468   -1.8946 N.2       1 <0>        -0.3871
      6 O1          4.2131   13.5041   -2.5969 O.3       1 <0>         0.0992
      7 N2          1.9609   11.5360   -0.9330 N.am      1 <0>        -0.6356
      8 C5          1.8339   10.1987   -0.8240 C.2       1 <0>         0.7207
      9 O2          2.6221    9.4652   -1.3887 O.2       1 <0>        -0.5445
     10 N3          0.8332    9.6745   -0.0890 N.am      1 <0>        -0.6735
     11 C6          0.6469    8.2858   -0.0479 C.ar      1 <0>         0.1801
     12 C7          1.7439    7.4362   -0.0956 C.ar      1 <0>        -0.0914
     13 C8          1.5603    6.0684   -0.0502 C.ar      1 <0>        -0.0883
     14 C9          0.2790    5.5420    0.0324 C.ar      1 <0>         0.0771
     15 C10        -0.8181    6.3897    0.0801 C.ar      1 <0>        -0.1014
     16 C11        -0.6356    7.7589    0.0401 C.ar      1 <0>        -0.0499
     17 Cl1        -2.0082    8.8201    0.1005 Cl        1 <0>        -0.0476
     18 O3          0.0991    4.1950    0.0722 O.3       1 <0>        -0.2411
     19 C12        -0.3502    3.5794   -1.0492 C.ar      1 <0>         0.1804
     20 C13        -0.7116    4.3100   -2.1680 C.ar      1 <0>        -0.2650
     21 C14        -1.1684    3.6517   -3.3022 C.ar      1 <0>         0.1647
     22 N4         -1.2698    2.3439   -3.3496 N.ar      1 <0>        -0.4921
     23 C15        -0.9381    1.5760   -2.3052 C.ar      1 <0>         0.1718
     24 C16        -0.4636    2.1728   -1.1118 C.ar      1 <0>        -0.1059
     25 C17        -0.1158    1.3649   -0.0182 C.ar      1 <0>        -0.1551
     26 C18        -0.2382    0.0092   -0.1142 C.ar      1 <0>         0.1143
     27 C19        -0.7075   -0.5849   -1.2949 C.ar      1 <0>         0.1516
     28 C20        -1.0526    0.1772   -2.3732 C.ar      1 <0>        -0.1797
     29 O4         -0.8206   -1.9372   -1.3659 O.3       1 <0>        -0.2997
     30 C21        -1.3043   -2.4841   -2.5943 C.3       1 <0>         0.0208
     31 O5          0.0988   -0.7737    0.9453 O.3       1 <0>        -0.3015
     32 C22         0.5706   -0.1089    2.1190 C.3       1 <0>         0.0228
     33 H1          5.6440   12.0807   -4.8934 H         1 <0>         0.0911
     34 H2          6.6404   12.9778   -3.7227 H         1 <0>         0.0861
     35 H3          6.4631   11.2130   -3.5726 H         1 <0>         0.0944
     36 H4          4.1175   10.2939   -2.4883 H         1 <0>         0.1922
     37 H5          1.3320   12.1212   -0.4824 H         1 <0>         0.4188
     38 H6          0.2419   10.2581    0.4116 H         1 <0>         0.4157
     39 H7          2.7411    7.8453   -0.1637 H         1 <0>         0.1634
     40 H8          2.4141    5.4078   -0.0829 H         1 <0>         0.1469
     41 H9         -1.8148    5.9795    0.1489 H         1 <0>         0.1495
     42 H10        -0.6382    5.3875   -2.1590 H         1 <0>         0.1415
     43 H11        -1.4475    4.2318   -4.1694 H         1 <0>         0.1631
     44 H12         0.2425    1.8142    0.8962 H         1 <0>         0.1493
     45 H13        -1.4129   -0.2935   -3.2760 H         1 <0>         0.1543
     46 H14        -1.3460   -3.5706   -2.5168 H         1 <0>         0.1059
     47 H15        -2.3024   -2.0957   -2.7969 H         1 <0>         0.0608
     48 H16        -0.6334   -2.2033   -3.4062 H         1 <0>         0.0609
     49 H17         0.8034   -0.8475    2.8861 H         1 <0>         0.1049
     50 H18         1.4685    0.4602    1.8782 H         1 <0>         0.0582
     51 H19        -0.2003    0.5676    2.4881 H         1 <0>         0.0581
@<TRIPOS>BOND
     1    1    2 1
     2    1   33 1
     3    1   34 1
     4    1   35 1
     5    2    6 1
     6    2    3 2
     7    3    4 1
     8    3   36 1
     9    4    5 2
    10    4    7 1
    11    5    6 1
    12    7    8 am
    13    7   37 1
    14    8    9 2
    15    8   10 am
    16   10   11 1
    17   10   38 1
    18   11   16 ar
    19   11   12 ar
    20   12   13 ar
    21   12   39 1
    22   13   14 ar
    23   13   40 1
    24   14   15 ar
    25   14   18 1
    26   15   16 ar
    27   15   41 1
    28   16   17 1
    29   18   19 1
    30   19   24 ar
    31   19   20 ar
    32   20   21 ar
    33   20   42 1
    34   21   22 ar
    35   21   43 1
    36   22   23 ar
    37   23   28 ar
    38   23   24 ar
    39   24   25 ar
    40   25   26 ar
    41   25   44 1
    42   26   27 ar
    43   26   31 1
    44   27   28 ar
    45   27   29 1
    46   28   45 1
    47   29   30 1
    48   30   46 1
    49   30   47 1
    50   30   48 1
    51   31   32 1
    52   32   49 1
    53   32   50 1
    54   32   51 1
@<TRIPOS>MOLECULE
ZINC03816292
   49    52     0     0     0
SMALL
USER_CHARGES
4-[3-chloro-4-(cyclopropylcarbamoylamino)phenoxy]-7-methoxy-quinoline-6-carboxamide
@<TRIPOS>ATOM
      1 C1         -9.7042    0.2814    0.6855 C.3       1 <0>         0.0172
      2 O1         -8.5599   -0.5698    0.7756 O.3       1 <0>        -0.2773
      3 C2         -7.3443    0.0150    0.6305 C.ar      1 <0>         0.2089
      4 C3         -7.2639    1.3603    0.4190 C.ar      1 <0>        -0.2206
      5 C4         -6.0108    1.9750    0.2630 C.ar      1 <0>         0.2192
      6 C5         -4.8335    1.1878    0.3371 C.ar      1 <0>        -0.1586
      7 C6         -4.9274   -0.1889    0.5635 C.ar      1 <0>         0.0030
      8 C7         -6.1770   -0.7734    0.7095 C.ar      1 <0>        -0.1650
      9 C8         -6.2857   -2.2248    0.9486 C.2       1 <0>         0.5640
     10 O2         -7.3798   -2.7396    1.0769 O.2       1 <0>        -0.5141
     11 N1         -5.1722   -2.9804    1.0249 N.am      1 <0>        -0.8539
     12 C9         -3.5768    1.8200    0.1827 C.ar      1 <0>         0.2036
     13 C10        -3.5612    3.1854   -0.0446 C.ar      1 <0>        -0.2805
     14 C11        -4.7581    3.8862   -0.1085 C.ar      1 <0>         0.1903
     15 N2         -5.9188    3.2910    0.0407 N.ar      1 <0>        -0.5068
     16 O3         -2.4248    1.1099    0.2497 O.3       1 <0>        -0.2393
     17 C12        -1.2503    1.7922    0.1941 C.ar      1 <0>         0.0628
     18 C13        -0.8081    2.5031    1.3008 C.ar      1 <0>        -0.0960
     19 C14         0.3821    3.2007    1.2436 C.ar      1 <0>        -0.1088
     20 C15         1.1392    3.1877    0.0801 C.ar      1 <0>         0.1909
     21 C16         0.6990    2.4720   -1.0264 C.ar      1 <0>        -0.0615
     22 C17        -0.4922    1.7739   -0.9676 C.ar      1 <0>        -0.0829
     23 Cl1         1.6450    2.4543   -2.4818 Cl        1 <0>        -0.0498
     24 N3          2.3476    3.8958    0.0217 N.am      1 <0>        -0.6792
     25 C18         3.0358    4.1486    1.1526 C.2       1 <0>         0.7121
     26 O4          2.5740    3.8262    2.2303 O.2       1 <0>        -0.5638
     27 N4          4.2359    4.7586    1.0890 N.am      1 <0>        -0.7079
     28 C19         4.9840    5.0333    2.3183 C.3       1 <0>         0.0934
     29 C20         5.6451    6.4068    2.4510 C.3       1 <0>        -0.1916
     30 C21         6.5042    5.1647    2.2057 C.3       1 <0>        -0.1872
     31 H1         -9.6517    1.0442    1.4623 H         1 <0>         0.0608
     32 H2         -9.7246    0.7604   -0.2934 H         1 <0>         0.0607
     33 H3        -10.6093   -0.3113    0.8189 H         1 <0>         0.1065
     34 H4         -8.1657    1.9518    0.3604 H         1 <0>         0.1519
     35 H5         -4.0339   -0.7925    0.6240 H         1 <0>         0.1475
     36 H6         -4.2994   -2.5697    0.9226 H         1 <0>         0.3990
     37 H7         -5.2437   -3.9349    1.1822 H         1 <0>         0.4076
     38 H8         -2.6220    3.7034   -0.1713 H         1 <0>         0.1442
     39 H9         -4.7337    4.9512   -0.2863 H         1 <0>         0.1656
     40 H10        -1.3973    2.5140    2.2059 H         1 <0>         0.1435
     41 H11         0.7239    3.7569    2.1040 H         1 <0>         0.1761
     42 H12        -0.8351    1.2177   -1.8275 H         1 <0>         0.1498
     43 H13         2.6884    4.2039   -0.8326 H         1 <0>         0.4124
     44 H14         4.6043    5.0158    0.2293 H         1 <0>         0.4013
     45 H15         4.5840    4.5774    3.2239 H         1 <0>         0.1430
     46 H16         5.5234    7.1059    1.6237 H         1 <0>         0.0981
     47 H17         5.6799    6.8547    3.4441 H         1 <0>         0.1059
     48 H18         7.1043    4.7956    3.0374 H         1 <0>         0.1073
     49 H19         6.9478    5.0464    1.2171 H         1 <0>         0.0986
@<TRIPOS>BOND
     1    1    2 1
     2    1   31 1
     3    1   32 1
     4    1   33 1
     5    2    3 1
     6    3    8 ar
     7    3    4 ar
     8    4    5 ar
     9    4   34 1
    10    5   15 ar
    11    5    6 ar
    12    6    7 ar
    13    6   12 ar
    14    7    8 ar
    15    7   35 1
    16    8    9 1
    17    9   10 2
    18    9   11 am
    19   11   36 1
    20   11   37 1
    21   12   13 ar
    22   12   16 1
    23   13   14 ar
    24   13   38 1
    25   14   15 ar
    26   14   39 1
    27   16   17 1
    28   17   22 ar
    29   17   18 ar
    30   18   19 ar
    31   18   40 1
    32   19   20 ar
    33   19   41 1
    34   20   21 ar
    35   20   24 1
    36   21   22 ar
    37   21   23 1
    38   22   42 1
    39   24   25 am
    40   24   43 1
    41   25   26 2
    42   25   27 am
    43   27   28 1
    44   27   44 1
    45   28   30 1
    46   28   29 1
    47   28   45 1
    48   29   30 1
    49   29   46 1
    50   29   47 1
    51   30   48 1
    52   30   49 1
@<TRIPOS>MOLECULE
ZINC03816287
   46    49     0     0     0
SMALL
USER_CHARGES

@<TRIPOS>ATOM
      1 C1         -0.4006    1.8133   -0.4401 C.3       1 <0>         0.0871
      2 N1         -1.1177    1.0280   -1.4476 N.am      1 <0>        -0.7301
      3 C2         -1.9829    0.0685   -1.0637 C.2       1 <0>         0.5525
      4 O1         -2.1682   -0.1454    0.1190 O.2       1 <0>        -0.5103
      5 C3         -2.7044   -0.7217   -2.0774 C.ar      1 <0>        -0.1322
      6 C4         -2.4906   -0.4836   -3.4377 C.ar      1 <0>        -0.0667
      7 C5         -3.1681   -1.2254   -4.3801 C.ar      1 <0>        -0.1350
      8 C6         -4.0631   -2.2087   -3.9871 C.ar      1 <0>        -0.0713
      9 C7         -4.2856   -2.4563   -2.6488 C.ar      1 <0>        -0.1338
     10 C8         -3.6068   -1.7225   -1.6825 C.ar      1 <0>        -0.0540
     11 S1         -3.8832   -2.0412    0.0283 S.3       1 <0>         0.1073
     12 C9         -5.1859   -3.2275    0.0359 C.ar      1 <0>        -0.1366
     13 C10        -4.8839   -4.5884    0.1122 C.ar      1 <0>        -0.1076
     14 C11        -5.8805   -5.5195    0.1196 C.ar      1 <0>        -0.0471
     15 C12        -7.2150   -5.1122    0.0504 C.ar      1 <0>        -0.1372
     16 C13        -7.5287   -3.7433   -0.0267 C.ar      1 <0>         0.1175
     17 C14        -6.5014   -2.8039   -0.0280 C.ar      1 <0>        -0.0800
     18 N2         -8.8967   -3.6477   -0.0826 N.pl3     1 <0>        -0.5002
     19 H1         -9.3992   -2.8201   -0.1412 H         1 <0>         0.4438
     20 N3         -9.4524   -4.9302   -0.0423 N.2       1 <0>        -0.2302
     21 C15        -8.4970   -5.8299    0.0365 C.2       1 <0>         0.1206
     22 C16        -8.6783   -7.2882    0.0993 C.2       1 <0>        -0.0434
     23 C17        -9.9162   -7.8134    0.0779 C.2       1 <0>        -0.0836
     24 C18       -10.0977   -9.2731    0.1407 C.ar      1 <0>         0.1509
     25 C19       -11.3864   -9.8141    0.1123 C.ar      1 <0>        -0.1551
     26 C20       -11.5393  -11.1869    0.1717 C.ar      1 <0>        -0.0743
     27 C21       -10.4013  -11.9784    0.2577 C.ar      1 <0>        -0.1729
     28 C22        -9.1559  -11.3781    0.2814 C.ar      1 <0>         0.1045
     29 N4         -9.0343  -10.0680    0.2186 N.ar      1 <0>        -0.4789
     30 H2          0.2486    2.5348   -0.9362 H         1 <0>         0.0773
     31 H3         -1.1184    2.3417    0.1873 H         1 <0>         0.0627
     32 H4          0.2017    1.1478    0.1783 H         1 <0>         0.0630
     33 H5         -0.9699    1.1985   -2.3910 H         1 <0>         0.4014
     34 H6         -1.7952    0.2815   -3.7498 H         1 <0>         0.1300
     35 H7         -3.0014   -1.0399   -5.4309 H         1 <0>         0.1319
     36 H8         -4.5897   -2.7843   -4.7340 H         1 <0>         0.1301
     37 H9         -4.9847   -3.2238   -2.3511 H         1 <0>         0.1302
     38 H10        -3.8531   -4.9064    0.1654 H         1 <0>         0.1382
     39 H11        -5.6383   -6.5703    0.1784 H         1 <0>         0.1368
     40 H12        -6.7300   -1.7498   -0.0828 H         1 <0>         0.1359
     41 H13        -7.8174   -7.9372    0.1626 H         1 <0>         0.1511
     42 H14       -10.7771   -7.1644    0.0146 H         1 <0>         0.1373
     43 H15       -12.2500   -9.1691    0.0453 H         1 <0>         0.1380
     44 H16       -12.5222  -11.6340    0.1520 H         1 <0>         0.1370
     45 H17       -10.4884  -13.0538    0.3059 H         1 <0>         0.1366
     46 H18        -8.2701  -11.9923    0.3486 H         1 <0>         0.1591
@<TRIPOS>BOND
     1    1    2 1
     2    1   30 1
     3    1   31 1
     4    1   32 1
     5    2    3 am
     6    2   33 1
     7    3    4 2
     8    3    5 1
     9    5   10 ar
    10    5    6 ar
    11    6    7 ar
    12    6   34 1
    13    7    8 ar
    14    7   35 1
    15    8    9 ar
    16    8   36 1
    17    9   10 ar
    18    9   37 1
    19   10   11 1
    20   11   12 1
    21   12   17 ar
    22   12   13 ar
    23   13   14 ar
    24   13   38 1
    25   14   15 ar
    26   14   39 1
    27   15   21 1
    28   15   16 ar
    29   16   17 ar
    30   16   18 1
    31   17   40 1
    32   18   19 1
    33   18   20 1
    34   20   21 2
    35   21   22 1
    36   22   23 2
    37   22   41 1
    38   23   24 1
    39   23   42 1
    40   24   29 ar
    41   24   25 ar
    42   25   26 ar
    43   25   43 1
    44   26   27 ar
    45   26   44 1
    46   27   28 ar
    47   27   45 1
    48   28   29 ar
    49   28   46 1
@<TRIPOS>MOLECULE
ZINC03816287
   46    49     0     0     0
SMALL
USER_CHARGES

@<TRIPOS>ATOM
      1 C1          0.5574    1.8246   -0.0897 C.3       1 <0>         0.0873
      2 N1          1.8004    1.0608   -0.2223 N.am      1 <0>        -0.7306
      3 C2          1.9154    0.1220   -1.1826 C.2       1 <0>         0.5526
      4 O1          0.9872   -0.0909   -1.9389 O.2       1 <0>        -0.5098
      5 C3          3.1660   -0.6465   -1.3160 C.ar      1 <0>        -0.1327
      6 C4          4.2332   -0.4094   -0.4456 C.ar      1 <0>        -0.0670
      7 C5          5.3994   -1.1310   -0.5756 C.ar      1 <0>        -0.1360
      8 C6          5.5217   -2.0928   -1.5667 C.ar      1 <0>        -0.0714
      9 C7          4.4780   -2.3391   -2.4338 C.ar      1 <0>        -0.1333
     10 C8          3.2906   -1.6256   -2.3148 C.ar      1 <0>        -0.0527
     11 S1          1.9522   -1.9431   -3.4160 S.3       1 <0>         0.1041
     12 C9          2.6152   -3.0964   -4.5714 C.ar      1 <0>        -0.1418
     13 C10         2.4121   -4.4673   -4.3629 C.ar      1 <0>        -0.1117
     14 C11         2.9018   -5.3972   -5.2229 C.ar      1 <0>        -0.0503
     15 C12         3.6304   -4.9862   -6.3519 C.ar      1 <0>        -0.1583
     16 C13         3.8471   -3.5513   -6.5776 C.ar      1 <0>         0.0885
     17 C14         3.3095   -2.6335   -5.6511 C.ar      1 <0>        -0.0289
     18 N2          4.5509   -3.4330   -7.6916 N.2       1 <0>        -0.2742
     19 N3          4.8121   -4.7037   -8.2153 N.pl3     1 <0>        -0.4186
     20 H1          5.3115   -4.8810   -9.0277 H         1 <0>         0.4442
     21 C15         4.2599   -5.6521   -7.4131 C.2       1 <0>         0.1286
     22 C16         4.3111   -7.0551   -7.6126 C.2       1 <0>        -0.0538
     23 C17         4.9564   -7.5615   -8.6855 C.2       1 <0>        -0.0993
     24 C18         5.0096   -9.0163   -8.8924 C.ar      1 <0>         0.1495
     25 C19         5.6842   -9.5360  -10.0023 C.ar      1 <0>        -0.1561
     26 C20         5.7248  -10.9060  -10.1815 C.ar      1 <0>        -0.0734
     27 C21         5.0914  -11.7169   -9.2482 C.ar      1 <0>        -0.1701
     28 C22         4.4421  -11.1379   -8.1733 C.ar      1 <0>         0.1062
     29 N4          4.4203   -9.8299   -8.0197 N.ar      1 <0>        -0.4771
     30 H2          0.3650    2.3688   -1.0144 H         1 <0>         0.0627
     31 H3         -0.2690    1.1422    0.1089 H         1 <0>         0.0627
     32 H4          0.6513    2.5312    0.7349 H         1 <0>         0.0769
     33 H5          2.5408    1.2306    0.3810 H         1 <0>         0.4012
     34 H6          4.1440    0.3390    0.3279 H         1 <0>         0.1295
     35 H7          6.2230   -0.9463    0.0981 H         1 <0>         0.1312
     36 H8          6.4406   -2.6526   -1.6605 H         1 <0>         0.1295
     37 H9          4.5816   -3.0897   -3.2033 H         1 <0>         0.1307
     38 H10         1.8532   -4.7919   -3.4977 H         1 <0>         0.1338
     39 H11         2.7323   -6.4479   -5.0398 H         1 <0>         0.1319
     40 H12         3.4498   -1.5721   -5.7931 H         1 <0>         0.1394
     41 H13         3.8342   -7.7187   -6.9066 H         1 <0>         0.1582
     42 H14         5.4334   -6.8979   -9.3916 H         1 <0>         0.1248
     43 H15         6.1658   -8.8765  -10.7090 H         1 <0>         0.1372
     44 H16         6.2377  -11.3366  -11.0288 H         1 <0>         0.1381
     45 H17         5.1056  -12.7909   -9.3614 H         1 <0>         0.1381
     46 H18         3.9493  -11.7674   -7.4472 H         1 <0>         0.1606
@<TRIPOS>BOND
     1    1    2 1
     2    1   30 1
     3    1   31 1
     4    1   32 1
     5    2    3 am
     6    2   33 1
     7    3    4 2
     8    3    5 1
     9    5   10 ar
    10    5    6 ar
    11    6    7 ar
    12    6   34 1
    13    7    8 ar
    14    7   35 1
    15    8    9 ar
    16    8   36 1
    17    9   10 ar
    18    9   37 1
    19   10   11 1
    20   11   12 1
    21   12   17 ar
    22   12   13 ar
    23   13   14 ar
    24   13   38 1
    25   14   15 ar
    26   14   39 1
    27   15   21 2
    28   15   16 ar
    29   16   17 ar
    30   16   18 2
    31   17   40 1
    32   18   19 1
    33   19   20 1
    34   19   21 1
    35   21   22 1
    36   22   23 2
    37   22   41 1
    38   23   24 1
    39   23   42 1
    40   24   29 ar
    41   24   25 ar
    42   25   26 ar
    43   25   43 1
    44   26   27 ar
    45   26   44 1
    46   27   28 ar
    47   27   45 1
    48   28   29 ar
    49   28   46 1
@<TRIPOS>MOLECULE
ZINC08385400
   51    55     0     0     0
SMALL
USER_CHARGES
N-(2-methoxyphenyl)-4-(BLAHylsulfanylmethyl)benzamide
@<TRIPOS>ATOM
      1 C1         -6.9868   10.4524   -4.2631 C.3       1 <0>         0.0292
      2 O1         -6.6370    9.5581   -3.2049 O.3       1 <0>        -0.3222
      3 C2         -7.4958    9.4797   -2.1536 C.ar      1 <0>         0.0974
      4 C3         -8.6499   10.2461   -2.1410 C.ar      1 <0>        -0.1880
      5 C4         -9.5223   10.1650   -1.0716 C.ar      1 <0>        -0.0970
      6 C5         -9.2471    9.3197   -0.0125 C.ar      1 <0>        -0.1333
      7 C6         -8.1006    8.5482   -0.0194 C.ar      1 <0>        -0.0952
      8 C7         -7.2176    8.6282   -1.0866 C.ar      1 <0>         0.1198
      9 N1         -6.0528    7.8506   -1.0940 N.am      1 <0>        -0.6570
     10 C8         -5.5190    7.4255    0.0682 C.2       1 <0>         0.5591
     11 O2         -5.9887    7.7991    1.1255 O.2       1 <0>        -0.5149
     12 C9         -4.3625    6.5050    0.0574 C.ar      1 <0>        -0.1277
     13 C10        -3.8073    6.0628    1.2594 C.ar      1 <0>        -0.0537
     14 C11        -2.7283    5.2034    1.2422 C.ar      1 <0>        -0.1050
     15 C12        -2.1965    4.7797    0.0372 C.ar      1 <0>        -0.0539
     16 C13        -2.7388    5.2184   -1.1578 C.ar      1 <0>        -0.1045
     17 C14        -3.8212    6.0737   -1.1548 C.ar      1 <0>        -0.0831
     18 C15        -1.0174    3.8413    0.0261 C.3       1 <0>        -0.0819
     19 S1         -1.6081    2.1304    0.0221 S.3       1 <0>         0.0529
     20 C16        -0.0677    1.2749    0.0093 C.ar      1 <0>         0.2567
     21 N2         -0.0605   -0.0517    0.0034 N.ar      1 <0>        -0.4837
     22 C17         1.1025   -0.6956   -0.0119 C.ar      1 <0>         0.3712
     23 C18         2.2891    0.0665   -0.0213 C.ar      1 <0>         0.0035
     24 C19         3.4013   -0.8994   -0.0374 C.ar      1 <0>        -0.0849
     25 C20         4.7878   -0.7667   -0.0525 C.ar      1 <0>        -0.0408
     26 C21         5.5833   -1.8922   -0.0666 C.ar      1 <0>        -0.1372
     27 C22         5.0080   -3.1535   -0.0654 C.ar      1 <0>        -0.0670
     28 C23         3.6372   -3.2989   -0.0507 C.ar      1 <0>        -0.1308
     29 C24         2.8174   -2.1753   -0.0367 C.ar      1 <0>         0.1520
     30 N3          1.4400   -2.0263   -0.0213 N.pl3     1 <0>        -0.5812
     31 H1          0.8040   -2.7587   -0.0171 H         1 <0>         0.4312
     32 N4          2.2143    1.3892   -0.0151 N.ar      1 <0>        -0.1257
     33 N5          1.0643    1.9712    0.0002 N.ar      1 <0>        -0.3025
     34 H2         -6.2191   10.4186   -5.0361 H         1 <0>         0.1017
     35 H3         -7.9448   10.1541   -4.6891 H         1 <0>         0.0569
     36 H4         -7.0635   11.4666   -3.8713 H         1 <0>         0.0569
     37 H5         -8.8682   10.9069   -2.9670 H         1 <0>         0.1326
     38 H6        -10.4214   10.7633   -1.0636 H         1 <0>         0.1272
     39 H7         -9.9320    9.2592    0.8204 H         1 <0>         0.1293
     40 H8         -7.8901    7.8861    0.8074 H         1 <0>         0.1530
     41 H9         -5.6303    7.6181   -1.9356 H         1 <0>         0.4144
     42 H10        -4.2217    6.3924    2.2006 H         1 <0>         0.1428
     43 H11        -2.2979    4.8602    2.1714 H         1 <0>         0.1373
     44 H12        -2.3161    4.8875   -2.0949 H         1 <0>         0.1361
     45 H13        -4.2461    6.4122   -2.0882 H         1 <0>         0.1306
     46 H14        -0.4079    4.0131    0.9133 H         1 <0>         0.1140
     47 H15        -0.4184    4.0209   -0.8666 H         1 <0>         0.1137
     48 H16         5.2381    0.2149   -0.0527 H         1 <0>         0.1385
     49 H17         6.6585   -1.7911   -0.0782 H         1 <0>         0.1377
     50 H18         5.6392   -4.0298   -0.0759 H         1 <0>         0.1397
     51 H19         3.1993   -4.2862   -0.0499 H         1 <0>         0.1359
@<TRIPOS>BOND
     1    1    2 1
     2    1   34 1
     3    1   35 1
     4    1   36 1
     5    2    3 1
     6    3    8 ar
     7    3    4 ar
     8    4    5 ar
     9    4   37 1
    10    5    6 ar
    11    5   38 1
    12    6    7 ar
    13    6   39 1
    14    7    8 ar
    15    7   40 1
    16    8    9 1
    17    9   10 am
    18    9   41 1
    19   10   11 2
    20   10   12 1
    21   12   17 ar
    22   12   13 ar
    23   13   14 ar
    24   13   42 1
    25   14   15 ar
    26   14   43 1
    27   15   16 ar
    28   15   18 1
    29   16   17 ar
    30   16   44 1
    31   17   45 1
    32   18   19 1
    33   18   46 1
    34   18   47 1
    35   19   20 1
    36   20   33 ar
    37   20   21 ar
    38   21   22 ar
    39   22   30 1
    40   22   23 ar
    41   23   24 1
    42   23   32 ar
    43   24   29 ar
    44   24   25 ar
    45   25   26 ar
    46   25   48 1
    47   26   27 ar
    48   26   49 1
    49   27   28 ar
    50   27   50 1
    51   28   29 ar
    52   28   51 1
    53   29   30 1
    54   30   31 1
    55   32   33 ar
@<TRIPOS>MOLECULE
ZINC00706878
   48    52     0     0     0
SMALL
USER_CHARGES
N-(4-BLAHyloxyphenyl)benzamide
@<TRIPOS>ATOM
      1 C1          0.8646   12.3153    1.2939 C.ar      1 <0>        -0.0886
      2 C2         -0.0019   11.4427    1.9281 C.ar      1 <0>        -0.1261
      3 C3          0.1733   10.0800    1.8042 C.ar      1 <0>        -0.0558
      4 C4          1.2279    9.5820    1.0372 C.ar      1 <0>        -0.1402
      5 C5          2.1022   10.4678    0.4051 C.ar      1 <0>        -0.0857
      6 C6          1.9117   11.8282    0.5318 C.ar      1 <0>        -0.1263
      7 C7          1.4217    8.1230    0.9000 C.2       1 <0>         0.5616
      8 O1          0.6617    7.3540    1.4558 O.2       1 <0>        -0.5123
      9 N1          2.4410    7.6454    0.1588 N.am      1 <0>        -0.6702
     10 C8          2.6829    6.2673    0.1066 C.ar      1 <0>         0.1537
     11 C9          3.9856    5.7934    0.0227 C.ar      1 <0>        -0.1299
     12 C10         4.2235    4.4344   -0.0283 C.ar      1 <0>        -0.0854
     13 C11         3.1615    3.5421    0.0049 C.ar      1 <0>         0.0666
     14 C12         1.8594    4.0150    0.0834 C.ar      1 <0>        -0.0914
     15 C13         1.6203    5.3737    0.1393 C.ar      1 <0>        -0.1070
     16 O2          3.3965    2.2039   -0.0453 O.3       1 <0>        -0.2307
     17 C14         3.8715    1.5995    1.0697 C.ar      1 <0>         0.4103
     18 C15         4.0353    0.1889    1.1093 C.ar      1 <0>        -0.1960
     19 C16         3.7535   -0.7964    0.0637 C.2       1 <0>        -0.0757
     20 C17         3.9995   -2.0888    0.3588 C.2       1 <0>        -0.1439
     21 S1          4.6128   -2.0755    2.0222 S.3       1 <0>         0.1248
     22 C18         4.5371   -0.3289    2.3212 C.ar      1 <0>         0.1382
     23 N2          4.8283    0.4576    3.3381 N.ar      1 <0>        -0.4976
     24 C19         4.6541    1.7615    3.2412 C.ar      1 <0>         0.3561
     25 N3          4.1882    2.3142    2.1353 N.ar      1 <0>        -0.5714
     26 C20         3.7966   -3.2773   -0.5310 C.3       1 <0>        -0.0409
     27 C21         2.9134   -2.8530   -1.7131 C.3       1 <0>        -0.1158
     28 C22         3.4591   -1.5426   -2.2881 C.3       1 <0>        -0.1224
     29 C23         3.2064   -0.3993   -1.3047 C.3       1 <0>        -0.0594
     30 H1          0.7228   13.3812    1.3938 H         1 <0>         0.1303
     31 H2         -0.8175   11.8294    2.5212 H         1 <0>         0.1331
     32 H3         -0.5037    9.4000    2.2998 H         1 <0>         0.1381
     33 H4          2.9227   10.0889   -0.1861 H         1 <0>         0.1258
     34 H5          2.5842   12.5147    0.0390 H         1 <0>         0.1317
     35 H6          3.0069    8.2563   -0.3386 H         1 <0>         0.4124
     36 H7          4.8124    6.4878   -0.0024 H         1 <0>         0.1344
     37 H8          5.2365    4.0657   -0.0936 H         1 <0>         0.1309
     38 H9          1.0330    3.3201    0.1047 H         1 <0>         0.1342
     39 H10         0.6070    5.7416    0.2046 H         1 <0>         0.1486
     40 H11         4.8934    2.3905    4.0858 H         1 <0>         0.2131
     41 H12         3.3048   -4.0740    0.0271 H         1 <0>         0.0872
     42 H13         4.7602   -3.6281   -0.9003 H         1 <0>         0.0894
     43 H14         1.8898   -2.7033   -1.3695 H         1 <0>         0.0700
     44 H15         2.9317   -3.6254   -2.4820 H         1 <0>         0.0777
     45 H16         2.9595   -1.3254   -3.2322 H         1 <0>         0.0733
     46 H17         4.5308   -1.6423   -2.4600 H         1 <0>         0.0672
     47 H18         2.1352   -0.2123   -1.2295 H         1 <0>         0.0805
     48 H19         3.7126    0.5009   -1.6533 H         1 <0>         0.0834
@<TRIPOS>BOND
     1    1    6 ar
     2    1    2 ar
     3    1   30 1
     4    2    3 ar
     5    2   31 1
     6    3    4 ar
     7    3   32 1
     8    4    5 ar
     9    4    7 1
    10    5    6 ar
    11    5   33 1
    12    6   34 1
    13    7    8 2
    14    7    9 am
    15    9   10 1
    16    9   35 1
    17   10   15 ar
    18   10   11 ar
    19   11   12 ar
    20   11   36 1
    21   12   13 ar
    22   12   37 1
    23   13   14 ar
    24   13   16 1
    25   14   15 ar
    26   14   38 1
    27   15   39 1
    28   16   17 1
    29   17   25 ar
    30   17   18 ar
    31   18   22 ar
    32   18   19 1
    33   19   29 1
    34   19   20 2
    35   20   21 1
    36   20   26 1
    37   21   22 1
    38   22   23 ar
    39   23   24 ar
    40   24   25 ar
    41   24   40 1
    42   26   27 1
    43   26   41 1
    44   26   42 1
    45   27   28 1
    46   27   43 1
    47   27   44 1
    48   28   29 1
    49   28   45 1
    50   28   46 1
    51   29   47 1
    52   29   48 1
@<TRIPOS>MOLECULE
ZINC07996826
   41    44     0     0     0
SMALL
USER_CHARGES
3-chloro-N-[4-(8-methyl-9-oxo-7-oxa-10-azabicyclo[4.4.0]deca-2,4,11-trien-3-yl)thiazol-2-yl]-benzamide
@<TRIPOS>ATOM
      1 C1          1.9055    1.8818    1.3778 C.3       1 <0>        -0.1778
      2 C2          1.2520    2.0163    0.0009 C.3       1 <0>         0.0785
      3 H1          1.1101    3.0718   -0.2313 H         1 <0>         0.1530
      4 C3          2.1427    1.3886   -1.0408 C.2       1 <0>         0.4958
      5 O1          2.9708    2.0604   -1.6189 O.2       1 <0>        -0.5073
      6 N1          2.0146    0.0750   -1.3281 N.am      1 <0>        -0.6583
      7 C4          1.0257   -0.6714   -0.6709 C.ar      1 <0>         0.0908
      8 C5          1.0588   -2.0540   -0.6873 C.ar      1 <0>        -0.0899
      9 C6          0.0653   -2.7771   -0.0288 C.ar      1 <0>        -0.0136
     10 C7         -0.9552   -2.1050    0.6421 C.ar      1 <0>        -0.0919
     11 C8         -0.9839   -0.7246    0.6554 C.ar      1 <0>        -0.1053
     12 C9          0.0021   -0.0041    0.0020 C.ar      1 <0>         0.0858
     13 O2         -0.0164    1.3562    0.0095 O.3       1 <0>        -0.2970
     14 C10         0.0938   -4.2602   -0.0425 C.2       1 <0>         0.1181
     15 C11        -0.9283   -4.9749    0.5172 C.2       1 <0>        -0.2337
     16 S1         -0.3700   -6.6460    0.2120 S.3       1 <0>         0.1305
     17 C12         1.1575   -6.2234   -0.6146 C.2       1 <0>         0.3147
     18 N2          1.1123   -4.9041   -0.5922 N.2       1 <0>        -0.5306
     19 N3          2.1325   -7.0603   -1.1405 N.am      1 <0>        -0.6058
     20 C13         1.9875   -8.3978   -1.0600 C.2       1 <0>         0.5675
     21 O3          1.0030   -8.8715   -0.5270 O.2       1 <0>        -0.4871
     22 C14         3.0254   -9.2887   -1.6199 C.ar      1 <0>        -0.1246
     23 C15         2.8781  -10.6747   -1.5381 C.ar      1 <0>        -0.0458
     24 C16         3.8502  -11.5011   -2.0624 C.ar      1 <0>        -0.1097
     25 C17         4.9697  -10.9598   -2.6690 C.ar      1 <0>        -0.0743
     26 C18         5.1226   -9.5864   -2.7538 C.ar      1 <0>        -0.0425
     27 C19         4.1541   -8.7481   -2.2376 C.ar      1 <0>        -0.0758
     28 Cl1         6.5306   -8.9168   -3.5174 Cl        1 <0>        -0.0530
     29 H2          2.0464    0.8266    1.6116 H         1 <0>         0.0663
     30 H3          2.8724    2.3849    1.3718 H         1 <0>         0.0837
     31 H4          1.2632    2.3382    2.1310 H         1 <0>         0.0881
     32 H5          2.5979   -0.3458   -1.9790 H         1 <0>         0.4169
     33 H6          1.8509   -2.5713   -1.2083 H         1 <0>         0.1426
     34 H7         -1.7250   -2.6651    1.1521 H         1 <0>         0.1389
     35 H8         -1.7760   -0.2063    1.1755 H         1 <0>         0.1454
     36 H9         -1.8254   -4.6266    1.0072 H         1 <0>         0.2026
     37 H10         2.9181   -6.6824   -1.5659 H         1 <0>         0.4264
     38 H11         2.0046  -11.0990   -1.0656 H         1 <0>         0.1489
     39 H12         3.7369  -12.5733   -1.9995 H         1 <0>         0.1470
     40 H13         5.7274  -11.6115   -3.0785 H         1 <0>         0.1442
     41 H14         4.2719   -7.6769   -2.3080 H         1 <0>         0.1381
@<TRIPOS>BOND
     1    1    2 1
     2    1   29 1
     3    1   30 1
     4    1   31 1
     5    2    3 1
     6    2   13 1
     7    2    4 1
     8    4    5 2
     9    4    6 am
    10    6    7 1
    11    6   32 1
    12    7   12 ar
    13    7    8 ar
    14    8    9 ar
    15    8   33 1
    16    9   10 ar
    17    9   14 1
    18   10   11 ar
    19   10   34 1
    20   11   12 ar
    21   11   35 1
    22   12   13 1
    23   14   18 1
    24   14   15 2
    25   15   16 1
    26   15   36 1
    27   16   17 1
    28   17   18 2
    29   17   19 1
    30   19   20 am
    31   19   37 1
    32   20   21 2
    33   20   22 1
    34   22   27 ar
    35   22   23 ar
    36   23   24 ar
    37   23   38 1
    38   24   25 ar
    39   24   39 1
    40   25   26 ar
    41   25   40 1
    42   26   27 ar
    43   26   28 1
    44   27   41 1
@<TRIPOS>MOLECULE
ZINC05009212
   47    49     0     0     0
SMALL
USER_CHARGES
N,N'-bis(4-ethoxyphenyl)-1,2,4-triazine-3,5-diamine
@<TRIPOS>ATOM
      1 C1         -8.1648    4.9966   -3.3274 C.3       1 <0>        -0.1535
      2 C2         -6.8262    4.5314   -2.7506 C.3       1 <0>         0.0542
      3 O1         -6.9430    3.1776   -2.3080 O.3       1 <0>        -0.3157
      4 C3         -5.8341    2.6078   -1.7650 C.ar      1 <0>         0.1210
      5 C4         -5.8783    1.2964   -1.3151 C.ar      1 <0>        -0.1324
      6 C5         -4.7528    0.7171   -0.7631 C.ar      1 <0>        -0.1003
      7 C6         -3.5765    1.4478   -0.6586 C.ar      1 <0>         0.1079
      8 C7         -3.5348    2.7624   -1.1040 C.ar      1 <0>        -0.0690
      9 C8         -4.6596    3.3384   -1.6610 C.ar      1 <0>        -0.1898
     10 N1         -2.4349    0.8612   -0.0991 N.pl3     1 <0>        -0.6318
     11 C9         -1.5585    1.6289    0.6517 C.ar      1 <0>         0.4422
     12 C10        -0.3510    1.0917    1.1089 C.ar      1 <0>        -0.0960
     13 N2          0.4632    1.8505    1.8164 N.ar      1 <0>        -0.1279
     14 N3          0.1518    3.0691    2.0888 N.ar      1 <0>        -0.3584
     15 C11        -0.9893    3.6026    1.6720 C.ar      1 <0>         0.5370
     16 N4         -1.8508    2.8904    0.9566 N.ar      1 <0>        -0.5724
     17 N5         -1.2850    4.9183    1.9877 N.pl3     1 <0>        -0.6254
     18 C12        -0.3340    5.7126    2.6400 C.ar      1 <0>         0.1193
     19 C13        -0.7413    6.6682    3.5616 C.ar      1 <0>        -0.1018
     20 C14         0.1975    7.4485    4.2073 C.ar      1 <0>        -0.1887
     21 C15         1.5464    7.2841    3.9288 C.ar      1 <0>         0.1190
     22 C16         1.9538    6.3331    3.0049 C.ar      1 <0>        -0.1290
     23 C17         1.0166    5.5490    2.3615 C.ar      1 <0>        -0.0695
     24 O2          2.4700    8.0561    4.5616 O.3       1 <0>        -0.3155
     25 C18         1.9800    9.0152    5.5008 C.3       1 <0>         0.0540
     26 C19         3.1566    9.7833    6.1062 C.3       1 <0>        -0.1535
     27 H1         -8.9343    4.9309   -2.5582 H         1 <0>         0.0669
     28 H2         -8.0757    6.0292   -3.6649 H         1 <0>         0.0793
     29 H3         -8.4379    4.3613   -4.1698 H         1 <0>         0.0670
     30 H4         -6.5531    5.1667   -1.9081 H         1 <0>         0.0622
     31 H5         -6.0567    4.5971   -3.5197 H         1 <0>         0.0623
     32 H6         -6.7932    0.7284   -1.3961 H         1 <0>         0.1363
     33 H7         -4.7872   -0.3040   -0.4132 H         1 <0>         0.1340
     34 H8         -2.6216    3.3328   -1.0190 H         1 <0>         0.1338
     35 H9         -4.6259    4.3592   -2.0119 H         1 <0>         0.1307
     36 H10        -2.2574   -0.0824   -0.2370 H         1 <0>         0.4273
     37 H11        -0.0865    0.0695    0.8817 H         1 <0>         0.1816
     38 H12        -2.1510    5.2896    1.7570 H         1 <0>         0.4229
     39 H13        -1.7917    6.7991    3.7755 H         1 <0>         0.1281
     40 H14        -0.1188    8.1892    4.9268 H         1 <0>         0.1320
     41 H15         3.0042    6.2060    2.7883 H         1 <0>         0.1358
     42 H16         1.3339    4.8086    1.6422 H         1 <0>         0.1401
     43 H17         1.3133    9.7126    4.9935 H         1 <0>         0.0617
     44 H18         1.4347    8.5023    6.2930 H         1 <0>         0.0620
     45 H19         3.8233    9.0859    6.6134 H         1 <0>         0.0670
     46 H20         3.7019   10.2963    5.3140 H         1 <0>         0.0666
     47 H21         2.7829   10.5149    6.8226 H         1 <0>         0.0785
@<TRIPOS>BOND
     1    1    2 1
     2    1   27 1
     3    1   28 1
     4    1   29 1
     5    2    3 1
     6    2   30 1
     7    2   31 1
     8    3    4 1
     9    4    9 ar
    10    4    5 ar
    11    5    6 ar
    12    5   32 1
    13    6    7 ar
    14    6   33 1
    15    7    8 ar
    16    7   10 1
    17    8    9 ar
    18    8   34 1
    19    9   35 1
    20   10   11 1
    21   10   36 1
    22   11   16 ar
    23   11   12 ar
    24   12   13 ar
    25   12   37 1
    26   13   14 ar
    27   14   15 ar
    28   15   16 ar
    29   15   17 1
    30   17   18 1
    31   17   38 1
    32   18   23 ar
    33   18   19 ar
    34   19   20 ar
    35   19   39 1
    36   20   21 ar
    37   20   40 1
    38   21   22 ar
    39   21   24 1
    40   22   23 ar
    41   22   41 1
    42   23   42 1
    43   24   25 1
    44   25   26 1
    45   25   43 1
    46   25   44 1
    47   26   45 1
    48   26   46 1
    49   26   47 1
@<TRIPOS>MOLECULE
ZINC18181177
   49    52     0     0     0
SMALL
USER_CHARGES
N-(2,5-dimethoxyphenyl)-4-(9H-purin-6-ylsulfanylmethyl)benzamide
@<TRIPOS>ATOM
      1 C1         -7.2033    4.5609    0.8692 C.3       1 <0>         0.0238
      2 O1         -5.9986    3.8050    1.0086 O.3       1 <0>        -0.3134
      3 C2         -4.8796    4.3141    0.4273 C.ar      1 <0>         0.1142
      4 C3         -4.9424    5.5164   -0.2618 C.ar      1 <0>        -0.1843
      5 C4         -3.8070    6.0366   -0.8543 C.ar      1 <0>        -0.1497
      6 C5         -2.6014    5.3617   -0.7558 C.ar      1 <0>         0.0671
      7 C6         -2.5362    4.1515   -0.0690 C.ar      1 <0>         0.1626
      8 C7         -3.6771    3.6314    0.5243 C.ar      1 <0>        -0.1212
      9 N1         -1.3199    3.4642    0.0271 N.am      1 <0>        -0.6704
     10 C8         -1.3056    2.1165    0.0268 C.2       1 <0>         0.5598
     11 O2         -2.3519    1.4975    0.0252 O.2       1 <0>        -0.5158
     12 C9         -0.0177    1.3911    0.0285 C.ar      1 <0>        -0.1233
     13 C10         1.1855    2.0987    0.0245 C.ar      1 <0>        -0.0826
     14 C11         2.3839    1.4155    0.0204 C.ar      1 <0>        -0.1054
     15 C12         2.3950    0.0319    0.0201 C.ar      1 <0>        -0.0589
     16 C13         1.2060   -0.6756    0.0240 C.ar      1 <0>        -0.1054
     17 C14         0.0006   -0.0047    0.0282 C.ar      1 <0>        -0.0553
     18 C15         3.7080   -0.7077    0.0150 C.3       1 <0>        -0.0599
     19 S1          4.2276   -1.0029   -1.6935 S.3       1 <0>        -0.0423
     20 C16         5.7429   -1.8561   -1.4094 C.ar      1 <0>         0.2036
     21 C17         6.5306   -2.3015   -2.4857 C.ar      1 <0>        -0.0795
     22 C18         7.7335   -2.9666   -2.1963 C.ar      1 <0>         0.3005
     23 N2          8.2944   -3.2788   -3.4088 N.2       1 <0>        -0.4912
     24 H1          5.5456   -1.7619   -4.2948 H         1 <0>         0.4626
     25 C19         7.4456   -2.8336   -4.3782 C.2       1 <0>         0.3051
     26 N3          6.4176   -2.2494   -3.8344 N.pl3     1 <0>        -0.5342
     27 N4          8.0781   -3.1554   -0.9262 N.ar      1 <0>        -0.4862
     28 C20         7.3056   -2.7268    0.0497 C.ar      1 <0>         0.3367
     29 N5          6.1717   -2.0876   -0.1723 N.ar      1 <0>        -0.5260
     30 O3         -1.4830    5.8777   -1.3338 O.3       1 <0>        -0.3194
     31 C21        -1.6235    7.1222   -2.0218 C.3       1 <0>         0.0258
     32 H2         -8.0247    4.0396    1.3825 H         1 <0>         0.1028
     33 H3         -7.4473    4.6683   -0.1980 H         1 <0>         0.0562
     34 H4         -7.0651    5.5566    1.3158 H         1 <0>         0.0562
     35 H5         -5.8803    6.0468   -0.3359 H         1 <0>         0.1329
     36 H6         -3.8590    6.9725   -1.3908 H         1 <0>         0.1358
     37 H7         -3.6285    2.6958    1.0615 H         1 <0>         0.1553
     38 H8         -0.3762    4.0243    0.1028 H         1 <0>         0.4382
     39 H9          1.1782    3.1787    0.0251 H         1 <0>         0.1310
     40 H10         3.3156    1.9618    0.0173 H         1 <0>         0.1348
     41 H11         1.2216   -1.7555    0.0241 H         1 <0>         0.1355
     42 H12        -0.9268   -0.5582    0.0316 H         1 <0>         0.1420
     43 H13         4.4701   -0.1054    0.5312 H         1 <0>         0.1140
     44 H14         3.5886   -1.6705    0.5335 H         1 <0>         0.1140
     45 H15         7.6715   -2.9715   -5.3425 H         1 <0>         0.2117
     46 H16         7.5745   -2.8740    1.0016 H         1 <0>         0.1875
     47 H17        -0.6508    7.4227   -2.4384 H         1 <0>         0.1025
     48 H18        -1.9750    7.8920   -1.3191 H         1 <0>         0.0564
     49 H19        -2.3528    7.0099   -2.8376 H         1 <0>         0.0560
@<TRIPOS>BOND
     1    1    2 1
     2    1   32 1
     3    1   33 1
     4    1   34 1
     5    2    3 1
     6    3    8 ar
     7    3    4 ar
     8    4    5 ar
     9    4   35 1
    10    5    6 ar
    11    5   36 1
    12    6    7 ar
    13    6   30 1
    14    7    8 ar
    15    7    9 1
    16    8   37 1
    17    9   10 am
    18    9   38 1
    19   10   11 2
    20   10   12 1
    21   12   17 ar
    22   12   13 ar
    23   13   14 ar
    24   13   39 1
    25   14   15 ar
    26   14   40 1
    27   15   16 ar
    28   15   18 1
    29   16   17 ar
    30   16   41 1
    31   17   42 1
    32   18   19 1
    33   18   43 1
    34   18   44 1
    35   19   20 1
    36   20   29 ar
    37   20   21 ar
    38   21   22 ar
    39   21   26 1
    40   22   23 1
    41   22   27 ar
    42   23   25 2
    43   24   26 1
    44   25   45 1
    45   25   26 1
    46   27   28 ar
    47   28   46 1
    48   28   29 ar
    49   30   31 1
    50   31   47 1
    51   31   48 1
    52   31   49 1
@<TRIPOS>MOLECULE
ZINC00873517
   43    45     0     0     0
SMALL
USER_CHARGES
N-[3-[2-[(4-bromophenyl)amino]-2-oxo-ethoxy]phenyl]pyridine-3-carboxamide
@<TRIPOS>ATOM
      1 C1          0.9560    7.6402   -0.4873 C.ar      1 <0>        -0.0570
      2 C2          1.0066    6.2628   -0.5828 C.ar      1 <0>        -0.1779
      3 C3         -0.1697    5.5257   -0.6341 C.ar      1 <0>         0.1871
      4 C4         -1.3959    6.1752   -0.5947 C.ar      1 <0>        -0.1495
      5 C5         -1.4423    7.5565   -0.4937 C.ar      1 <0>         0.1480
      6 C6         -0.2637    8.2880   -0.4427 C.ar      1 <0>        -0.2239
      7 O1         -2.6412    8.1951   -0.4502 O.3       1 <0>        -0.2864
      8 C7         -2.6138    9.6205   -0.3519 C.3       1 <0>         0.0437
      9 C8         -4.0247   10.1487   -0.3160 C.2       1 <0>         0.5153
     10 O2         -4.9615    9.3802   -0.3694 O.2       1 <0>        -0.4863
     11 N1         -4.2456   11.4751   -0.2247 N.am      1 <0>        -0.6713
     12 C9         -5.5512   11.9591   -0.0833 C.ar      1 <0>         0.1630
     13 C10        -5.9043   13.1809   -0.6408 C.ar      1 <0>        -0.1387
     14 C11        -7.1948   13.6536   -0.5043 C.ar      1 <0>        -0.0693
     15 C12        -8.1325   12.9161    0.1966 C.ar      1 <0>        -0.1058
     16 C13        -7.7819   11.7011    0.7579 C.ar      1 <0>        -0.0681
     17 C14        -6.4944   11.2210    0.6196 C.ar      1 <0>        -0.1165
     18 Br1        -9.8967   13.5697    0.3870 Br        1 <0>        -0.0475
     19 N2         -0.1186    4.1316   -0.7312 N.am      1 <0>        -0.6683
     20 C15        -1.0725    3.3800   -0.1466 C.2       1 <0>         0.5655
     21 O3         -1.9240    3.9068    0.5427 O.2       1 <0>        -0.5035
     22 C16        -1.0832    1.9151   -0.3437 C.ar      1 <0>        -0.1929
     23 C17        -2.0688    1.1230    0.2582 C.ar      1 <0>        -0.0118
     24 C18        -2.0342   -0.2431    0.0422 C.ar      1 <0>        -0.1765
     25 C19        -1.0369   -0.7779   -0.7538 C.ar      1 <0>         0.1278
     26 N3         -0.1211   -0.0069   -1.3082 N.ar      1 <0>        -0.4857
     27 C20        -0.1116    1.2982   -1.1325 C.ar      1 <0>         0.1372
     28 H1          1.8715    8.2117   -0.4479 H         1 <0>         0.1333
     29 H2          1.9612    5.7590   -0.6178 H         1 <0>         0.1306
     30 H3         -2.3119    5.6048   -0.6386 H         1 <0>         0.1452
     31 H4         -0.3000    9.3648   -0.3685 H         1 <0>         0.1301
     32 H5         -2.0935    9.9118    0.5606 H         1 <0>         0.1010
     33 H6         -2.0927   10.0343   -1.2152 H         1 <0>         0.0997
     34 H7         -3.4996   12.0944   -0.2569 H         1 <0>         0.4155
     35 H8         -5.1717   13.7589   -1.1845 H         1 <0>         0.1370
     36 H9         -7.4712   14.6016   -0.9418 H         1 <0>         0.1389
     37 H10        -8.5158   11.1275    1.3045 H         1 <0>         0.1382
     38 H11        -6.2214   10.2722    1.0573 H         1 <0>         0.1443
     39 H12         0.6033    3.7055   -1.2193 H         1 <0>         0.4137
     40 H13        -2.8362    1.5670    0.8748 H         1 <0>         0.1505
     41 H14        -2.7778   -0.8854    0.4905 H         1 <0>         0.1474
     42 H15        -1.0074   -1.8440   -0.9238 H         1 <0>         0.1655
     43 H16         0.6575    1.8957   -1.5994 H         1 <0>         0.1583
@<TRIPOS>BOND
     1    1    6 ar
     2    1    2 ar
     3    1   28 1
     4    2    3 ar
     5    2   29 1
     6    3    4 ar
     7    3   19 1
     8    4    5 ar
     9    4   30 1
    10    5    6 ar
    11    5    7 1
    12    6   31 1
    13    7    8 1
    14    8    9 1
    15    8   32 1
    16    8   33 1
    17    9   10 2
    18    9   11 am
    19   11   12 1
    20   11   34 1
    21   12   17 ar
    22   12   13 ar
    23   13   14 ar
    24   13   35 1
    25   14   15 ar
    26   14   36 1
    27   15   16 ar
    28   15   18 1
    29   16   17 ar
    30   16   37 1
    31   17   38 1
    32   19   20 am
    33   19   39 1
    34   20   21 2
    35   20   22 1
    36   22   27 ar
    37   22   23 ar
    38   23   24 ar
    39   23   40 1
    40   24   25 ar
    41   24   41 1
    42   25   26 ar
    43   25   42 1
    44   26   27 ar
    45   27   43 1
@<TRIPOS>MOLECULE
ZINC12640103
   51    54     0     0     0
SMALL
USER_CHARGES

@<TRIPOS>ATOM
      1 C1          0.0227   -3.2746    1.5910 C.3       1 <0>        -0.0827
      2 C2          0.0049   -2.0714    0.6837 C.2       1 <0>         0.2859
      3 N1          0.0816   -2.1156   -0.6144 N.2       1 <0>        -0.4790
      4 C3          0.0375   -0.8552   -1.1174 C.ar      1 <0>         0.0503
      5 C4          0.0816   -0.3323   -2.4126 C.ar      1 <0>        -0.0549
      6 C5          0.0149    1.0186   -2.6039 C.ar      1 <0>        -0.1237
      7 C6         -0.0962    1.8820   -1.5231 C.ar      1 <0>        -0.0904
      8 C7         -0.1415    1.3887   -0.2367 C.ar      1 <0>        -0.1250
      9 C8         -0.0754    0.0185   -0.0228 C.ar      1 <0>         0.0459
     10 N2         -0.0994   -0.7812    1.1022 N.pl3     1 <0>        -0.4943
     11 C9         -0.2127   -0.3249    2.4897 C.3       1 <0>         0.1350
     12 C10        -1.5735    0.3458    2.6987 C.3       1 <0>        -0.1613
     13 C11        -1.6538    0.8902    4.1265 C.3       1 <0>        -0.0014
     14 N3         -0.5844    1.8726    4.3403 N.4       1 <0>        -0.3731
     15 C12         0.7242    1.2202    4.2122 C.3       1 <0>        -0.0146
     16 C13         0.8960    0.6885    2.7876 C.3       1 <0>        -0.1587
     17 C14        -0.7129    2.4491    5.6853 C.3       1 <0>        -0.0303
     18 C15         0.3072    3.5442    5.8620 C.2       1 <0>         0.5028
     19 O1          1.0665    3.8175    4.9566 O.2       1 <0>        -0.5048
     20 N4          0.3758    4.2199    7.0262 N.am      1 <0>        -0.6414
     21 C16         1.2419    5.3121    7.1514 C.ar      1 <0>         0.1512
     22 C17         1.6316    6.0240    6.0246 C.ar      1 <0>        -0.1192
     23 C18         2.4860    7.1016    6.1515 C.ar      1 <0>        -0.0809
     24 C19         2.9542    7.4722    7.3989 C.ar      1 <0>        -0.1127
     25 C20         2.5689    6.7657    8.5232 C.ar      1 <0>        -0.0665
     26 C21         1.7092    5.6901    8.4040 C.ar      1 <0>        -0.1163
     27 Br1         1.1763    4.7289    9.9429 Br        1 <0>        -0.0333
     28 H1         -1.0007   -3.5730    1.8188 H         1 <0>         0.0909
     29 H2          0.5388   -4.0964    1.0947 H         1 <0>         0.1036
     30 H3          0.5426   -3.0246    2.5158 H         1 <0>         0.0779
     31 H4          0.1686   -0.9951   -3.2608 H         1 <0>         0.1347
     32 H5          0.0493    1.4188   -3.6064 H         1 <0>         0.1355
     33 H6         -0.1471    2.9476   -1.6910 H         1 <0>         0.1334
     34 H7         -0.2284    2.0649    0.6009 H         1 <0>         0.1125
     35 H8         -0.1179   -1.1772    3.1626 H         1 <0>         0.1202
     36 H9         -1.6879    1.1657    1.9896 H         1 <0>         0.0990
     37 H10        -2.3672   -0.3848    2.5425 H         1 <0>         0.1246
     38 H11        -2.6215    1.3682    4.2787 H         1 <0>         0.1429
     39 H12        -1.5395    0.0695    4.8347 H         1 <0>         0.1389
     40 H13         1.5122    1.9419    4.4277 H         1 <0>         0.1553
     41 H14         0.7878    0.3925    4.9186 H         1 <0>         0.1333
     42 H15         1.8675    0.2029    2.6951 H         1 <0>         0.1221
     43 H16         0.8329    1.5155    2.0804 H         1 <0>         0.1009
     44 H17        -1.7141    2.8617    5.8097 H         1 <0>         0.1688
     45 H18        -0.5448    1.6722    6.4312 H         1 <0>         0.1666
     46 H19        -0.1752    3.9492    7.7772 H         1 <0>         0.4218
     47 H20         1.2671    5.7350    5.0499 H         1 <0>         0.1518
     48 H21         2.7893    7.6555    5.2753 H         1 <0>         0.1402
     49 H22         3.6225    8.3151    7.4951 H         1 <0>         0.1420
     50 H23         2.9368    7.0571    9.4959 H         1 <0>         0.1449
     51 H24        -0.6616    2.6072    3.6529 H         1 <0>         0.4311
@<TRIPOS>BOND
     1    1    2 1
     2    1   28 1
     3    1   29 1
     4    1   30 1
     5    2   10 1
     6    2    3 2
     7    3    4 1
     8    4    9 ar
     9    4    5 ar
    10    5    6 ar
    11    5   31 1
    12    6    7 ar
    13    6   32 1
    14    7    8 ar
    15    7   33 1
    16    8    9 ar
    17    8   34 1
    18    9   10 1
    19   10   11 1
    20   11   16 1
    21   11   12 1
    22   11   35 1
    23   12   13 1
    24   12   36 1
    25   12   37 1
    26   13   14 1
    27   13   38 1
    28   13   39 1
    29   14   15 1
    30   14   17 1
    31   14   51 1
    32   15   16 1
    33   15   40 1
    34   15   41 1
    35   16   42 1
    36   16   43 1
    37   17   18 1
    38   17   44 1
    39   17   45 1
    40   18   19 2
    41   18   20 am
    42   20   21 1
    43   20   46 1
    44   21   26 ar
    45   21   22 ar
    46   22   23 ar
    47   22   47 1
    48   23   24 ar
    49   23   48 1
    50   24   25 ar
    51   24   49 1
    52   25   26 ar
    53   25   50 1
    54   26   27 1
@<TRIPOS>MOLECULE
ZINC12640103
   52    55     0     0     0
SMALL
USER_CHARGES

@<TRIPOS>ATOM
      1 C1          0.0227   -3.2746    1.5910 C.3       1 <0>        -0.1278
      2 C2          0.0049   -2.0714    0.6837 C.cat     1 <0>         0.4030
      3 N1          0.0816   -2.1156   -0.6144 N.pl3     1 <0>        -0.4823
      4 C3          0.0375   -0.8552   -1.1174 C.ar      1 <0>         0.0459
      5 C4          0.0816   -0.3323   -2.4126 C.ar      1 <0>        -0.0651
      6 C5          0.0149    1.0186   -2.6039 C.ar      1 <0>        -0.0765
      7 C6         -0.0962    1.8820   -1.5231 C.ar      1 <0>        -0.0534
      8 C7         -0.1415    1.3887   -0.2367 C.ar      1 <0>        -0.1055
      9 C8         -0.0754    0.0185   -0.0228 C.ar      1 <0>         0.0759
     10 N2         -0.0994   -0.7812    1.1022 N.pl3     1 <0>        -0.4400
     11 C9         -0.2127   -0.3249    2.4897 C.3       1 <0>         0.1222
     12 C10        -1.5735    0.3458    2.6987 C.3       1 <0>        -0.1630
     13 C11        -1.6538    0.8902    4.1265 C.3       1 <0>        -0.0025
     14 N3         -0.5844    1.8726    4.3403 N.4       1 <0>        -0.3754
     15 C12         0.7242    1.2202    4.2122 C.3       1 <0>        -0.0162
     16 C13         0.8960    0.6885    2.7876 C.3       1 <0>        -0.1606
     17 C14        -0.7129    2.4491    5.6853 C.3       1 <0>        -0.0316
     18 C15         0.3072    3.5442    5.8620 C.2       1 <0>         0.5020
     19 O1          1.0665    3.8175    4.9566 O.2       1 <0>        -0.5112
     20 N4          0.3758    4.2199    7.0262 N.am      1 <0>        -0.6357
     21 C16         1.2419    5.3121    7.1514 C.ar      1 <0>         0.1447
     22 C17         1.6316    6.0240    6.0246 C.ar      1 <0>        -0.1182
     23 C18         2.4860    7.1016    6.1515 C.ar      1 <0>        -0.0820
     24 C19         2.9542    7.4722    7.3989 C.ar      1 <0>        -0.1082
     25 C20         2.5689    6.7657    8.5232 C.ar      1 <0>        -0.0652
     26 C21         1.7092    5.6901    8.4040 C.ar      1 <0>        -0.1142
     27 Br1         1.1763    4.7289    9.9429 Br        1 <0>        -0.0300
     28 H1         -1.0007   -3.5730    1.8188 H         1 <0>         0.1335
     29 H2          0.5388   -4.0963    1.0947 H         1 <0>         0.1289
     30 H3          0.5426   -3.0246    2.5158 H         1 <0>         0.1208
     31 H4          0.1686   -0.9951   -3.2608 H         1 <0>         0.1581
     32 H5          0.0493    1.4188   -3.6064 H         1 <0>         0.1623
     33 H6         -0.1471    2.9476   -1.6910 H         1 <0>         0.1602
     34 H7         -0.2284    2.0649    0.6009 H         1 <0>         0.1416
     35 H8         -0.1179   -1.1772    3.1626 H         1 <0>         0.1424
     36 H9         -1.6879    1.1657    1.9896 H         1 <0>         0.1055
     37 H10        -2.3672   -0.3848    2.5425 H         1 <0>         0.1324
     38 H11        -2.6215    1.3682    4.2787 H         1 <0>         0.1527
     39 H12        -1.5395    0.0695    4.8347 H         1 <0>         0.1451
     40 H13         1.5122    1.9419    4.4277 H         1 <0>         0.1652
     41 H14         0.7878    0.3925    4.9186 H         1 <0>         0.1398
     42 H15         1.8675    0.2029    2.6951 H         1 <0>         0.1305
     43 H16         0.8329    1.5155    2.0804 H         1 <0>         0.1063
     44 H17        -1.7141    2.8617    5.8097 H         1 <0>         0.1726
     45 H18        -0.5448    1.6722    6.4312 H         1 <0>         0.1694
     46 H19        -0.1752    3.9492    7.7772 H         1 <0>         0.4229
     47 H20         1.2671    5.7350    5.0499 H         1 <0>         0.1504
     48 H21         2.7893    7.6555    5.2753 H         1 <0>         0.1409
     49 H22         3.6225    8.3151    7.4951 H         1 <0>         0.1440
     50 H23         2.9368    7.0571    9.4959 H         1 <0>         0.1470
     51 H24        -0.6616    2.6072    3.6529 H         1 <0>         0.4324
     52 H25         0.1585   -2.9257   -1.1424 H         1 <0>         0.4661
@<TRIPOS>BOND
     1    1    2 1
     2    1   28 1
     3    1   29 1
     4    1   30 1
     5    2   10 1
     6    2    3 2
     7    3    4 1
     8    3   52 1
     9    4    9 ar
    10    4    5 ar
    11    5    6 ar
    12    5   31 1
    13    6    7 ar
    14    6   32 1
    15    7    8 ar
    16    7   33 1
    17    8    9 ar
    18    8   34 1
    19    9   10 1
    20   10   11 1
    21   11   16 1
    22   11   12 1
    23   11   35 1
    24   12   13 1
    25   12   36 1
    26   12   37 1
    27   13   14 1
    28   13   38 1
    29   13   39 1
    30   14   15 1
    31   14   17 1
    32   14   51 1
    33   15   16 1
    34   15   40 1
    35   15   41 1
    36   16   42 1
    37   16   43 1
    38   17   18 1
    39   17   44 1
    40   17   45 1
    41   18   19 2
    42   18   20 am
    43   20   21 1
    44   20   46 1
    45   21   26 ar
    46   21   22 ar
    47   22   23 ar
    48   22   47 1
    49   23   24 ar
    50   23   48 1
    51   24   25 ar
    52   24   49 1
    53   25   26 ar
    54   25   50 1
    55   26   27 1
@<TRIPOS>MOLECULE
ZINC00839515
   47    49     0     0     0
SMALL
USER_CHARGES
ethyl 2-[3-methyl-7-(m-tolylmethyl)-2,6-dioxo-purin-8-yl]sulfanylacetate
@<TRIPOS>ATOM
      1 C1         -8.2920    6.9908   -4.7648 C.3       1 <0>        -0.1548
      2 C2         -7.4864    6.5578   -3.5382 C.3       1 <0>         0.0628
      3 O1         -6.0678    6.6748   -3.8249 O.3       1 <0>        -0.3476
      4 C3         -5.2176    6.3308   -2.8448 C.2       1 <0>         0.4839
      5 O2         -5.6447    5.9448   -1.7825 O.2       1 <0>        -0.4918
      6 C4         -3.7305    6.4260   -3.0694 C.3       1 <0>        -0.1262
      7 S1         -2.8593    5.8969   -1.5737 S.3       1 <0>         0.0981
      8 C5         -1.1911    6.1032   -2.1021 C.2       1 <0>         0.2480
      9 N1         -0.8157    6.5344   -3.2901 N.2       1 <0>        -0.4967
     10 C6          0.5154    6.5732   -3.3610 C.2       1 <0>         0.3339
     11 C7          1.0141    6.1437   -2.1355 C.2       1 <0>        -0.1410
     12 N2         -0.0893    5.8428   -1.3478 N.pl3     1 <0>        -0.3833
     13 C8         -0.0705    5.3471    0.0307 C.3       1 <0>         0.1434
     14 C9         -0.0501    3.8402    0.0223 C.ar      1 <0>        -0.1225
     15 C10         1.1565    3.1653    0.0081 C.ar      1 <0>        -0.0951
     16 C11         1.1752    1.7833    0.0004 C.ar      1 <0>        -0.1196
     17 C12        -0.0126    1.0758    0.0080 C.ar      1 <0>        -0.1044
     18 C13        -1.2188    1.7505    0.0173 C.ar      1 <0>        -0.0877
     19 C14        -1.2375    3.1329    0.0294 C.ar      1 <0>        -0.0948
     20 C15        -2.5135    0.9794    0.0192 C.3       1 <0>        -0.1168
     21 C16         2.4054    6.0832   -1.9439 C.2       1 <0>         0.5992
     22 O3          2.8646    5.7058   -0.8798 O.2       1 <0>        -0.5111
     23 N3          3.2271    6.4522   -2.9482 N.am      1 <0>        -0.6541
     24 H1          4.2173    6.4136   -2.8137 H         1 <0>         0.4478
     25 C17         2.7350    6.8709   -4.1269 C.2       1 <0>         0.7113
     26 O4          3.5057    7.1961   -5.0095 O.2       1 <0>        -0.5319
     27 N4          1.4097    6.9394   -4.3542 N.am      1 <0>        -0.5095
     28 C18         0.9127    7.4011   -5.6527 C.3       1 <0>         0.0883
     29 H2         -8.0547    8.0264   -5.0083 H         1 <0>         0.0689
     30 H3         -8.0383    6.3515   -5.6103 H         1 <0>         0.0688
     31 H4         -9.3569    6.9031   -4.5495 H         1 <0>         0.0839
     32 H5         -7.7237    5.5222   -3.2947 H         1 <0>         0.0748
     33 H6         -7.7401    7.1972   -2.6927 H         1 <0>         0.0749
     34 H7         -3.4632    7.4573   -3.2999 H         1 <0>         0.1432
     35 H8         -3.4468    5.7823   -3.9020 H         1 <0>         0.1430
     36 H9         -0.9608    5.6955    0.5543 H         1 <0>         0.1110
     37 H10         0.8189    5.7197    0.5387 H         1 <0>         0.1213
     38 H11         2.0843    3.7180    0.0025 H         1 <0>         0.1346
     39 H12         2.1177    1.2561   -0.0111 H         1 <0>         0.1257
     40 H13         0.0021   -0.0041    0.0020 H         1 <0>         0.1248
     41 H14        -2.1800    3.6602    0.0409 H         1 <0>         0.1269
     42 H15        -2.8208    0.7878    1.0473 H         1 <0>         0.0729
     43 H16        -3.2835    1.5609   -0.4878 H         1 <0>         0.0692
     44 H17        -2.3727    0.0317   -0.5004 H         1 <0>         0.0675
     45 H18         0.7795    8.4826   -5.6271 H         1 <0>         0.0746
     46 H19         1.6316    7.1419   -6.4299 H         1 <0>         0.0949
     47 H20        -0.0428    6.9223   -5.8671 H         1 <0>         0.0914
@<TRIPOS>BOND
     1    1    2 1
     2    1   29 1
     3    1   30 1
     4    1   31 1
     5    2    3 1
     6    2   32 1
     7    2   33 1
     8    3    4 1
     9    4    5 2
    10    4    6 1
    11    6    7 1
    12    6   34 1
    13    6   35 1
    14    7    8 1
    15    8   12 1
    16    8    9 2
    17    9   10 1
    18   10   27 1
    19   10   11 2
    20   11   12 1
    21   11   21 1
    22   12   13 1
    23   13   14 1
    24   13   36 1
    25   13   37 1
    26   14   19 ar
    27   14   15 ar
    28   15   16 ar
    29   15   38 1
    30   16   17 ar
    31   16   39 1
    32   17   18 ar
    33   17   40 1
    34   18   19 ar
    35   18   20 1
    36   19   41 1
    37   20   42 1
    38   20   43 1
    39   20   44 1
    40   21   22 2
    41   21   23 am
    42   23   24 1
    43   23   25 am
    44   25   26 2
    45   25   27 am
    46   27   28 1
    47   28   45 1
    48   28   46 1
    49   28   47 1
@<TRIPOS>MOLECULE
ZINC02679219
   41    43     0     0     0
SMALL
USER_CHARGES
2-[4-(difluoromethoxy)benzoyl]amino-5-phenyl-thiophene-3-carboxamide
@<TRIPOS>ATOM
      1 C1         -4.5019   -5.3098   -0.0043 C.ar      1 <0>        -0.1181
      2 C2         -5.5430   -4.3986    0.0057 C.ar      1 <0>        -0.1110
      3 C3         -5.2787   -3.0446    0.0119 C.ar      1 <0>        -0.1121
      4 C4         -3.9573   -2.5946    0.0075 C.ar      1 <0>         0.0036
      5 C5         -2.9117   -3.5193   -0.0089 C.ar      1 <0>        -0.1049
      6 C6         -3.1898   -4.8705   -0.0087 C.ar      1 <0>        -0.1131
      7 C7         -3.6667   -1.1455    0.0142 C.2       1 <0>        -0.1805
      8 C8         -2.4573   -0.5217    0.0114 C.2       1 <0>        -0.0932
      9 C9         -2.4476    0.8731    0.0184 C.2       1 <0>        -0.2517
     10 C10        -3.6774    1.5283    0.0332 C.2       1 <0>         0.1128
     11 S1         -4.8132    0.2193    0.0267 S.3       1 <0>         0.2677
     12 N1         -3.9296    2.8889    0.0472 N.am      1 <0>        -0.6050
     13 C11        -5.2000    3.3387    0.0604 C.2       1 <0>         0.5577
     14 O1         -6.1245    2.5490    0.0600 O.2       1 <0>        -0.4975
     15 C12        -5.4689    4.7893    0.0753 C.ar      1 <0>        -0.1674
     16 C13        -4.4075    5.6987    0.0816 C.ar      1 <0>        -0.0396
     17 C14        -4.6628    7.0517    0.0892 C.ar      1 <0>        -0.1980
     18 C15        -5.9738    7.5136    0.1033 C.ar      1 <0>         0.1429
     19 C16        -7.0322    6.6124    0.1029 C.ar      1 <0>        -0.1423
     20 C17        -6.7855    5.2578    0.0891 C.ar      1 <0>        -0.0139
     21 O2         -6.2211    8.8479    0.1170 O.3       1 <0>        -0.3152
     22 C18        -5.0874    9.7178    0.1165 C.3       1 <0>         0.4109
     23 F1         -4.3077    9.4684    1.2510 F         1 <0>        -0.1950
     24 F2         -4.3243    9.4887   -1.0335 F         1 <0>        -0.1950
     25 C19        -1.1873    1.6238    0.0165 C.2       1 <0>         0.5908
     26 O3         -1.2038    2.8407    0.0232 O.2       1 <0>        -0.5637
     27 N2         -0.0111    0.9658    0.0074 N.am      1 <0>        -0.8470
     28 H1         -4.7142   -6.3687   -0.0084 H         1 <0>         0.1249
     29 H2         -6.5649   -4.7481    0.0091 H         1 <0>         0.1273
     30 H3         -6.0923   -2.3344    0.0204 H         1 <0>         0.1232
     31 H4         -1.8871   -3.1776   -0.0171 H         1 <0>         0.1244
     32 H5         -2.3818   -5.5870   -0.0165 H         1 <0>         0.1269
     33 H6         -1.5370   -1.0868    0.0036 H         1 <0>         0.1398
     34 H7         -3.1920    3.5189    0.0475 H         1 <0>         0.4338
     35 H8         -3.3886    5.3406    0.0758 H         1 <0>         0.1372
     36 H9         -3.8433    7.7551    0.0891 H         1 <0>         0.1442
     37 H10        -8.0493    6.9753    0.1139 H         1 <0>         0.1481
     38 H11        -7.6084    4.5584    0.0884 H         1 <0>         0.1524
     39 H12        -5.4248   10.7542    0.1282 H         1 <0>         0.1876
     40 H13         0.0021   -0.0041    0.0020 H         1 <0>         0.4020
     41 H14         0.8223    1.4622    0.0021 H         1 <0>         0.4061
@<TRIPOS>BOND
     1    1    6 ar
     2    1    2 ar
     3    1   28 1
     4    2    3 ar
     5    2   29 1
     6    3    4 ar
     7    3   30 1
     8    4    5 ar
     9    4    7 1
    10    5    6 ar
    11    5   31 1
    12    6   32 1
    13    7   11 1
    14    7    8 2
    15    8    9 1
    16    8   33 1
    17    9   10 2
    18    9   25 1
    19   10   11 1
    20   10   12 1
    21   12   13 am
    22   12   34 1
    23   13   14 2
    24   13   15 1
    25   15   20 ar
    26   15   16 ar
    27   16   17 ar
    28   16   35 1
    29   17   18 ar
    30   17   36 1
    31   18   19 ar
    32   18   21 1
    33   19   20 ar
    34   19   37 1
    35   20   38 1
    36   21   22 1
    37   22   23 1
    38   22   24 1
    39   22   39 1
    40   25   26 2
    41   25   27 am
    42   27   40 1
    43   27   41 1
@<TRIPOS>MOLECULE
ZINC16047498
   46    49     0     0     0
SMALL
USER_CHARGES
2-[2-[(3-chlorophenyl)carbamoylamino]thiazol-4-yl]-N-(6-methyl-1,3-benzothiazol-2-yl)acetamide
@<TRIPOS>ATOM
      1 C1         -1.2594   -0.8191   -0.0637 C.3       1 <0>        -0.1131
      2 C2          0.0277   -0.0352   -0.0626 C.ar      1 <0>        -0.0681
      3 C3          0.0033    1.3521   -0.0511 C.ar      1 <0>        -0.1060
      4 C4          1.1588    2.0886   -0.0493 C.ar      1 <0>        -0.0617
      5 C5          2.4215    1.4519   -0.0593 C.ar      1 <0>         0.0972
      6 C6          2.4077    0.0384   -0.0709 C.ar      1 <0>        -0.1433
      7 C7          1.2449   -0.6910   -0.0725 C.ar      1 <0>        -0.0640
      8 S1          4.1398   -0.3566   -0.0806 S.3       1 <0>        -0.0029
      9 C8          4.7530    1.3221   -0.0690 C.2       1 <0>         0.3758
     10 N1          3.6445    2.0249   -0.0591 N.2       1 <0>        -0.5064
     11 N2          6.0647    1.7681   -0.0703 N.am      1 <0>        -0.6217
     12 C9          6.3269    3.0901   -0.0608 C.2       1 <0>         0.5094
     13 O1          5.4148    3.8892   -0.0513 O.2       1 <0>        -0.4426
     14 C10         7.7537    3.5753   -0.0622 C.3       1 <0>        -0.0581
     15 C11         7.7719    5.0821   -0.0504 C.2       1 <0>         0.0925
     16 C12         8.4516    5.7598    0.9063 C.2       1 <0>        -0.2575
     17 S2          8.1185    7.4462    0.4187 S.3       1 <0>         0.1783
     18 C13         7.1369    7.0906   -0.9689 C.2       1 <0>         0.3013
     19 N3          7.1312    5.7718   -0.9743 N.2       1 <0>        -0.5241
     20 N4          6.5205    7.9701   -1.8511 N.am      1 <0>        -0.6160
     21 C14         6.6513    9.3003   -1.6781 C.2       1 <0>         0.7091
     22 O2          7.3084    9.7309   -0.7502 O.2       1 <0>        -0.5340
     23 N5          6.0536   10.1532   -2.5336 N.am      1 <0>        -0.6696
     24 C15         6.1082   11.5317   -2.2997 C.ar      1 <0>         0.1680
     25 C16         5.0283   12.3379   -2.6361 C.ar      1 <0>        -0.1363
     26 C17         5.0827   13.6974   -2.3999 C.ar      1 <0>        -0.0862
     27 C18         6.2150   14.2586   -1.8385 C.ar      1 <0>        -0.1215
     28 C19         7.2949   13.4595   -1.5068 C.ar      1 <0>        -0.0162
     29 C20         7.2440   12.0971   -1.7362 C.ar      1 <0>        -0.1116
     30 Cl1         8.7146   14.1682   -0.8028 Cl        1 <0>        -0.0603
     31 H1         -1.5739   -0.9996   -1.0916 H         1 <0>         0.0759
     32 H2         -1.1046   -1.7724    0.4416 H         1 <0>         0.0704
     33 H3         -2.0305   -0.2523    0.4580 H         1 <0>         0.0722
     34 H4         -0.9481    1.8631   -0.0479 H         1 <0>         0.1345
     35 H5          1.1047    3.1672   -0.0403 H         1 <0>         0.1334
     36 H6          1.2806   -1.7704   -0.0812 H         1 <0>         0.1336
     37 H7          6.7943    1.1290   -0.0779 H         1 <0>         0.4288
     38 H8          8.2663    3.1988    0.8230 H         1 <0>         0.1199
     39 H9          8.2599    3.2127   -0.9568 H         1 <0>         0.1174
     40 H10         9.0335    5.3842    1.7350 H         1 <0>         0.1986
     41 H11         5.9962    7.6266   -2.5914 H         1 <0>         0.4239
     42 H12         5.5855    9.8114   -3.3114 H         1 <0>         0.4163
     43 H13         4.1450   11.9012   -3.0784 H         1 <0>         0.1346
     44 H14         4.2416   14.3238   -2.6580 H         1 <0>         0.1398
     45 H15         6.2567   15.3228   -1.6589 H         1 <0>         0.1370
     46 H16         8.0867   11.4733   -1.4769 H         1 <0>         0.1533
@<TRIPOS>BOND
     1    1    2 1
     2    1   31 1
     3    1   32 1
     4    1   33 1
     5    2    7 ar
     6    2    3 ar
     7    3    4 ar
     8    3   34 1
     9    4    5 ar
    10    4   35 1
    11    5   10 1
    12    5    6 ar
    13    6    7 ar
    14    6    8 1
    15    7   36 1
    16    8    9 1
    17    9   10 2
    18    9   11 1
    19   11   12 am
    20   11   37 1
    21   12   13 2
    22   12   14 1
    23   14   15 1
    24   14   38 1
    25   14   39 1
    26   15   19 1
    27   15   16 2
    28   16   17 1
    29   16   40 1
    30   17   18 1
    31   18   19 2
    32   18   20 1
    33   20   21 am
    34   20   41 1
    35   21   22 2
    36   21   23 am
    37   23   24 1
    38   23   42 1
    39   24   29 ar
    40   24   25 ar
    41   25   26 ar
    42   25   43 1
    43   26   27 ar
    44   26   44 1
    45   27   28 ar
    46   27   45 1
    47   28   29 ar
    48   28   30 1
    49   29   46 1
@<TRIPOS>MOLECULE
ZINC01493878
   48    50     0     0     0
SMALL
USER_CHARGES

@<TRIPOS>ATOM
      1 C1         -1.0955   -5.0083   -6.9234 C.3       1 <0>         0.0847
      2 N1         -1.5520   -4.3038   -5.7228 N.am      1 <0>        -0.7137
      3 C2         -1.8827   -5.0004   -4.6175 C.2       1 <0>         0.5696
      4 O1         -1.8023   -6.2129   -4.6168 O.2       1 <0>        -0.5284
      5 C3         -2.3445   -4.2878   -3.4031 C.ar      1 <0>         0.1129
      6 C4         -2.6788   -5.0128   -2.2640 C.ar      1 <0>        -0.1883
      7 C5         -3.1110   -4.3279   -1.1310 C.ar      1 <0>         0.1595
      8 C6         -3.1903   -2.9389   -1.1877 C.ar      1 <0>        -0.1766
      9 C7         -2.8404   -2.2885   -2.3571 C.ar      1 <0>         0.1349
     10 N2         -2.4302   -2.9626   -3.4105 N.ar      1 <0>        -0.4815
     11 O2         -3.4471   -4.9979    0.0005 O.3       1 <0>        -0.2437
     12 C8         -3.4462   -6.3570   -0.0383 C.ar      1 <0>         0.0568
     13 C9         -2.2447   -7.0505   -0.0178 C.ar      1 <0>        -0.1074
     14 C10        -2.2431   -8.4307   -0.0577 C.ar      1 <0>        -0.1009
     15 C11        -3.4442   -9.1246   -0.1179 C.ar      1 <0>         0.1671
     16 C12        -4.6464   -8.4301   -0.1379 C.ar      1 <0>        -0.1272
     17 C13        -4.6469   -7.0500   -0.0928 C.ar      1 <0>        -0.0940
     18 N3         -3.4432  -10.5252   -0.1588 N.am      1 <0>        -0.6776
     19 C14        -2.5108  -11.2187    0.5239 C.2       1 <0>         0.7077
     20 O3         -1.6217  -10.6297    1.1080 O.2       1 <0>        -0.5493
     21 N4         -2.5639  -12.5649    0.5593 N.am      1 <0>        -0.6795
     22 C15        -1.6655  -13.2800    1.3600 C.ar      1 <0>         0.1700
     23 C16        -1.2529  -12.7583    2.5792 C.ar      1 <0>        -0.0742
     24 C17        -0.3670  -13.4659    3.3674 C.ar      1 <0>        -0.0871
     25 C18         0.1097  -14.6941    2.9434 C.ar      1 <0>        -0.0077
     26 C19        -0.2993  -15.2159    1.7290 C.ar      1 <0>        -0.1564
     27 C20        -1.1898  -14.5147    0.9394 C.ar      1 <0>        -0.0879
     28 C21         0.2222  -16.5533    1.2702 C.3       1 <0>         0.5112
     29 F1         -0.3299  -16.8663    0.0234 F         1 <0>        -0.1743
     30 F2          1.6160  -16.4983    1.1626 F         1 <0>        -0.1671
     31 F3         -0.1354  -17.5367    2.1987 F         1 <0>        -0.1677
     32 Cl1         1.2234  -15.5812    3.9366 Cl        1 <0>        -0.0394
     33 H1         -0.8760   -4.2843   -7.7081 H         1 <0>         0.0803
     34 H2         -0.1948   -5.5764   -6.6909 H         1 <0>         0.0631
     35 H3         -1.8761   -5.6883   -7.2645 H         1 <0>         0.0629
     36 H4         -1.6162   -3.3359   -5.7233 H         1 <0>         0.4141
     37 H5         -2.6047   -6.0902   -2.2584 H         1 <0>         0.1546
     38 H6         -3.5217   -2.3755   -0.3280 H         1 <0>         0.1523
     39 H7         -2.9005   -1.2112   -2.4052 H         1 <0>         0.1747
     40 H8         -1.3104   -6.5106    0.0290 H         1 <0>         0.1364
     41 H9         -1.3078   -8.9704   -0.0424 H         1 <0>         0.1514
     42 H10        -5.5809   -8.9693   -0.1851 H         1 <0>         0.1386
     43 H11        -5.5820   -6.5098   -0.1039 H         1 <0>         0.1400
     44 H12        -4.1137  -10.9957   -0.6785 H         1 <0>         0.4131
     45 H13        -3.2246  -13.0383    0.0299 H         1 <0>         0.4146
     46 H14        -1.6244  -11.7997    2.9103 H         1 <0>         0.1546
     47 H15        -0.0456  -13.0604    4.3154 H         1 <0>         0.1524
     48 H16        -1.5123  -14.9245   -0.0064 H         1 <0>         0.1525
@<TRIPOS>BOND
     1    1    2 1
     2    1   33 1
     3    1   34 1
     4    1   35 1
     5    2    3 am
     6    2   36 1
     7    3    4 2
     8    3    5 1
     9    5   10 ar
    10    5    6 ar
    11    6    7 ar
    12    6   37 1
    13    7    8 ar
    14    7   11 1
    15    8    9 ar
    16    8   38 1
    17    9   10 ar
    18    9   39 1
    19   11   12 1
    20   12   17 ar
    21   12   13 ar
    22   13   14 ar
    23   13   40 1
    24   14   15 ar
    25   14   41 1
    26   15   16 ar
    27   15   18 1
    28   16   17 ar
    29   16   42 1
    30   17   43 1
    31   18   19 am
    32   18   44 1
    33   19   20 2
    34   19   21 am
    35   21   22 1
    36   21   45 1
    37   22   27 ar
    38   22   23 ar
    39   23   24 ar
    40   23   46 1
    41   24   25 ar
    42   24   47 1
    43   25   26 ar
    44   25   32 1
    45   26   27 ar
    46   26   28 1
    47   27   48 1
    48   28   29 1
    49   28   30 1
    50   28   31 1
@<TRIPOS>MOLECULE
ZINC03989259
   57    59     0     0     0
SMALL
USER_CHARGES

@<TRIPOS>ATOM
      1 C1          4.7940    1.4748   -1.9580 C.3       1 <0>        -0.1866
      2 C2          5.1782    0.4845   -0.8568 C.3       1 <0>        -0.0173
      3 C3          6.5990    2.1351    0.2012 C.3       1 <0>        -0.0111
      4 C4          7.8882    1.3271    0.0399 C.3       1 <0>        -0.1890
      5 C5          4.2763    1.9385    0.8563 C.3       1 <0>        -0.0230
      6 C6          3.2014    0.9315    1.2703 C.3       1 <0>         0.0949
      7 N1          2.0151    1.6500    1.7424 N.am      1 <0>        -0.7291
      8 C7          0.9338    0.9632    2.1616 C.2       1 <0>         0.6111
      9 O1          0.9429   -0.2527    2.1478 O.2       1 <0>        -0.5184
     10 C8         -0.2621    1.6862    2.6309 C.2       1 <0>        -0.2417
     11 C9         -1.3491    2.1107    1.8372 C.2       1 <0>        -0.0585
     12 C10        -2.2403    2.7399    2.6838 C.2       1 <0>        -0.0067
     13 N2         -1.7112    2.7111    3.9576 N.pl3     1 <0>        -0.4914
     14 H1         -2.1295    3.0867    4.7480 H         1 <0>         0.4268
     15 C11        -0.5253    2.0803    3.9303 C.2       1 <0>         0.1152
     16 C12         0.3697    1.8413    5.1189 C.3       1 <0>        -0.0999
     17 C13        -3.4736    3.3170    2.3103 C.2       1 <0>         0.0707
     18 C14        -3.9268    4.4526    2.9516 C.2       1 <0>        -0.1866
     19 C15        -5.2445    5.1082    2.7974 C.ar      1 <0>        -0.0906
     20 C16        -6.3711    4.8169    2.0348 C.ar      1 <0>        -0.0550
     21 C17        -7.4810    5.6350    2.1130 C.ar      1 <0>        -0.0537
     22 C18        -7.4734    6.7373    2.9534 C.ar      1 <0>        -0.0704
     23 C19        -6.3632    7.0298    3.7190 C.ar      1 <0>        -0.1195
     24 C20        -5.2361    6.2179    3.6532 C.ar      1 <0>         0.1435
     25 N3         -4.0089    6.2840    4.3026 N.am      1 <0>        -0.6473
     26 C21        -3.2028    5.2754    3.9301 C.2       1 <0>         0.5595
     27 O2         -2.0702    5.0781    4.3329 O.2       1 <0>        -0.5145
     28 Cl1        -8.8870    5.2828    1.1575 Cl        1 <0>        -0.0549
     29 C22        -1.5083    1.9123    0.3518 C.3       1 <0>        -0.0928
     30 H2          3.9159    2.0409   -1.6474 H         1 <0>         0.0796
     31 H3          5.6233    2.1594   -2.1365 H         1 <0>         0.0812
     32 H4          4.5692    0.9296   -2.8747 H         1 <0>         0.1075
     33 H5          6.0634   -0.0734   -1.1625 H         1 <0>         0.1329
     34 H6          4.3535   -0.2075   -0.6865 H         1 <0>         0.1314
     35 H7          6.4364    2.7416   -0.6898 H         1 <0>         0.1338
     36 H8          6.6840    2.7848    1.0723 H         1 <0>         0.1297
     37 H9          8.0650    0.7412    0.9418 H         1 <0>         0.0813
     38 H10         7.7929    0.6579   -0.8152 H         1 <0>         0.0804
     39 H11         8.7250    2.0065   -0.1219 H         1 <0>         0.1070
     40 H12         3.8925    2.5714    0.0562 H         1 <0>         0.1399
     41 H13         4.5434    2.5576    1.7128 H         1 <0>         0.1368
     42 H14         3.5853    0.2986    2.0704 H         1 <0>         0.0887
     43 H15         2.9343    0.3125    0.4138 H         1 <0>         0.0889
     44 H16         2.0079    2.6199    1.7534 H         1 <0>         0.4098
     45 H17         1.0581    2.6790    5.2297 H         1 <0>         0.0839
     46 H18        -0.2383    1.7492    6.0189 H         1 <0>         0.0780
     47 H19         0.9366    0.9226    4.9679 H         1 <0>         0.0839
     48 H20        -4.0625    2.8701    1.5230 H         1 <0>         0.1587
     49 H21        -6.3755    3.9579    1.3801 H         1 <0>         0.1412
     50 H22        -8.3447    7.3730    3.0099 H         1 <0>         0.1461
     51 H23        -6.3695    7.8913    4.3703 H         1 <0>         0.1406
     52 H24        -3.7653    6.9709    4.9427 H         1 <0>         0.4218
     53 H25        -2.0209    0.9688    0.1641 H         1 <0>         0.0783
     54 H26        -2.0935    2.7326   -0.0637 H         1 <0>         0.0725
     55 H27        -0.5256    1.8919   -0.1194 H         1 <0>         0.0632
     56 N4          5.4731    1.1989    0.4030 N.4       1 <0>        -0.3919
     57 H28         5.7338    0.5137    1.1218 H         1 <0>         0.4310
@<TRIPOS>BOND
     1    1    2 1
     2    1   30 1
     3    1   31 1
     4    1   32 1
     5    2   33 1
     6    2   34 1
     7    2   56 1
     8    3    4 1
     9    3   35 1
    10    3   36 1
    11    3   56 1
    12    4   37 1
    13    4   38 1
    14    4   39 1
    15    5    6 1
    16    5   40 1
    17    5   41 1
    18    5   56 1
    19    6    7 1
    20    6   42 1
    21    6   43 1
    22    7    8 am
    23    7   44 1
    24    8    9 2
    25    8   10 1
    26   10   15 2
    27   10   11 1
    28   11   12 2
    29   11   29 1
    30   12   13 1
    31   12   17 1
    32   13   14 1
    33   13   15 1
    34   15   16 1
    35   16   45 1
    36   16   46 1
    37   16   47 1
    38   17   18 2
    39   17   48 1
    40   18   26 1
    41   18   19 1
    42   19   24 ar
    43   19   20 ar
    44   20   21 ar
    45   20   49 1
    46   21   22 ar
    47   21   28 1
    48   22   23 ar
    49   22   50 1
    50   23   24 ar
    51   23   51 1
    52   24   25 1
    53   25   26 am
    54   25   52 1
    55   26   27 2
    56   29   53 1
    57   29   54 1
    58   29   55 1
    59   56   57 1
@<TRIPOS>MOLECULE
ZINC03989258
   55    58     0     0     0
SMALL
USER_CHARGES

@<TRIPOS>ATOM
      1 C1         -0.3067    1.0920    0.1581 C.3       1 <0>        -0.0934
      2 C2         -0.8831    1.4012    1.5157 C.2       1 <0>        -0.0571
      3 C3         -0.1735    1.6789    2.6674 C.2       1 <0>        -0.0079
      4 N1         -1.0799    1.9046    3.6827 N.pl3     1 <0>        -0.4909
      5 H1         -0.8527    2.1216    4.6004 H         1 <0>         0.4272
      6 C4         -2.3269    1.7762    3.1996 C.2       1 <0>         0.1158
      7 C5         -2.2518    1.4687    1.8531 C.2       1 <0>        -0.2424
      8 C6         -3.3892    1.2494    0.9413 C.2       1 <0>         0.6114
      9 O1         -3.8505    0.1329    0.8022 O.2       1 <0>        -0.5184
     10 N2         -3.9178    2.2864    0.2618 N.am      1 <0>        -0.7297
     11 C7         -5.0481    2.0685   -0.6443 C.3       1 <0>         0.0951
     12 C8         -5.4523    3.3981   -1.2844 C.3       1 <0>        -0.0120
     13 C9         -7.6910    2.4660   -1.5034 C.3       1 <0>        -0.0137
     14 C10        -8.9249    2.7895   -2.3827 C.3       1 <0>        -0.1471
     15 C11        -8.6747    4.2559   -2.8035 C.3       1 <0>        -0.1471
     16 C12        -7.1573    4.4661   -2.6464 C.3       1 <0>        -0.0091
     17 C13        -3.5975    1.9461    3.9920 C.3       1 <0>        -0.0997
     18 C14         1.2328    1.7236    2.7853 C.2       1 <0>         0.0735
     19 C15         1.8245    2.6161    3.6568 C.2       1 <0>        -0.1898
     20 C16         3.2552    2.6996    4.0258 C.ar      1 <0>        -0.0734
     21 C17         4.3824    1.9800    3.6416 C.ar      1 <0>        -0.1002
     22 C18         5.6168    2.3074    4.1699 C.ar      1 <0>         0.0862
     23 C19         5.7298    3.3529    5.0743 C.ar      1 <0>        -0.1140
     24 C20         4.6177    4.0755    5.4555 C.ar      1 <0>        -0.1020
     25 C21         3.3675    3.7601    4.9347 C.ar      1 <0>         0.1280
     26 N3          2.1101    4.3150    5.1462 N.am      1 <0>        -0.6464
     27 C22         1.1689    3.6844    4.4233 C.2       1 <0>         0.5597
     28 O2         -0.0194    3.9517    4.4065 O.2       1 <0>        -0.5162
     29 F1          6.7139    1.6084    3.8055 F         1 <0>        -0.1317
     30 H2         -0.1553    0.0167    0.0639 H         1 <0>         0.0787
     31 H3          0.6483    1.6048    0.0434 H         1 <0>         0.0727
     32 H4         -0.9962    1.4309   -0.6151 H         1 <0>         0.0637
     33 H5         -3.5499    3.1770    0.3728 H         1 <0>         0.4097
     34 H6         -4.7585    1.3634   -1.4234 H         1 <0>         0.0889
     35 H7         -5.8908    1.6642   -0.0834 H         1 <0>         0.0894
     36 H8         -5.7420    4.1032   -0.5053 H         1 <0>         0.1343
     37 H9         -4.6097    3.8023   -1.8453 H         1 <0>         0.1385
     38 H10        -7.5030    1.3925   -1.4842 H         1 <0>         0.1407
     39 H11        -7.8267    2.8520   -0.4931 H         1 <0>         0.1352
     40 H12        -9.8442    2.7061   -1.8030 H         1 <0>         0.1167
     41 H13        -8.9578    2.1379   -3.2559 H         1 <0>         0.0994
     42 H14        -9.2206    4.9356   -2.1493 H         1 <0>         0.1035
     43 H15        -8.9722    4.4078   -3.8411 H         1 <0>         0.1056
     44 H16        -6.9647    5.2403   -1.9037 H         1 <0>         0.1315
     45 H17        -6.7206    4.7496   -3.6040 H         1 <0>         0.1349
     46 H18        -3.9158    2.9877    3.9492 H         1 <0>         0.0838
     47 H19        -4.3763    1.3106    3.5705 H         1 <0>         0.0838
     48 H20        -3.4193    1.6629    5.0294 H         1 <0>         0.0782
     49 H21         1.8457    1.0596    2.1938 H         1 <0>         0.1590
     50 H22         4.2923    1.1660    2.9375 H         1 <0>         0.1437
     51 H23         6.6971    3.6040    5.4837 H         1 <0>         0.1485
     52 H24         4.7184    4.8877    6.1602 H         1 <0>         0.1415
     53 H25         1.9347    5.0620    5.7397 H         1 <0>         0.4217
     54 N4         -6.6121    3.1829   -2.2012 N.4       1 <0>        -0.3913
     55 H26        -6.3020    2.6373   -3.0138 H         1 <0>         0.4332
@<TRIPOS>BOND
     1    1    2 1
     2    1   30 1
     3    1   31 1
     4    1   32 1
     5    2    7 1
     6    2    3 2
     7    3    4 1
     8    3   18 1
     9    4    5 1
    10    4    6 1
    11    6    7 2
    12    6   17 1
    13    7    8 1
    14    8    9 2
    15    8   10 am
    16   10   11 1
    17   10   33 1
    18   11   12 1
    19   11   34 1
    20   11   35 1
    21   12   36 1
    22   12   37 1
    23   12   54 1
    24   13   14 1
    25   13   38 1
    26   13   39 1
    27   13   54 1
    28   14   15 1
    29   14   40 1
    30   14   41 1
    31   15   16 1
    32   15   42 1
    33   15   43 1
    34   16   44 1
    35   16   45 1
    36   16   54 1
    37   17   46 1
    38   17   47 1
    39   17   48 1
    40   18   19 2
    41   18   49 1
    42   19   27 1
    43   19   20 1
    44   20   25 ar
    45   20   21 ar
    46   21   22 ar
    47   21   50 1
    48   22   23 ar
    49   22   29 1
    50   23   24 ar
    51   23   51 1
    52   24   25 ar
    53   24   52 1
    54   25   26 1
    55   26   27 am
    56   26   53 1
    57   27   28 2
    58   54   55 1
@<TRIPOS>MOLECULE
ZINC13493833
   51    53     0     0     0
SMALL
USER_CHARGES
N-(2-dimethylaminoethyl)-5-[(Z)-(5-fluoro-2-oxo-indolin-3-ylidene)methyl]-2,4-dimethyl-1H-pyrrole-3-carboxamide
@<TRIPOS>ATOM
      1 C1         -1.4553    2.4940   -2.4659 C.3       1 <0>        -0.0932
      2 C2         -1.9834    2.4657   -1.0547 C.2       1 <0>        -0.0579
      3 C3         -3.2047    2.9443   -0.6230 C.2       1 <0>        -0.0071
      4 N1         -3.2905    2.7289    0.7369 N.pl3     1 <0>        -0.4911
      5 H1         -4.0437    2.9723    1.2976 H         1 <0>         0.4270
      6 C4         -2.1665    2.1282    1.1619 C.2       1 <0>         0.1155
      7 C5         -1.3262    1.9420    0.0792 C.2       1 <0>        -0.2422
      8 C6          0.0094    1.3186    0.1057 C.2       1 <0>         0.6113
      9 O1          0.1241    0.1194   -0.0604 O.2       1 <0>        -0.5183
     10 N2          1.1039    2.0786    0.3085 N.am      1 <0>        -0.7296
     11 C7          2.4317    1.4599    0.3288 C.3       1 <0>         0.0929
     12 C8          3.4917    2.5354    0.5749 C.3       1 <0>        -0.0185
     13 C9          5.8796    2.9358    0.5916 C.3       1 <0>        -0.0418
     14 C10         4.9663    1.0135    1.7462 C.3       1 <0>        -0.0499
     15 C11        -1.8705    1.7234    2.5830 C.3       1 <0>        -0.0998
     16 C12        -4.1899    3.5533   -1.4306 C.2       1 <0>         0.0727
     17 C13        -4.9714    4.5694   -0.9180 C.2       1 <0>        -0.1886
     18 C14        -6.1373    5.2184   -1.5579 C.ar      1 <0>        -0.0738
     19 C15        -6.7856    5.0283   -2.7742 C.ar      1 <0>        -0.1000
     20 C16        -7.8825    5.8056   -3.0945 C.ar      1 <0>         0.0862
     21 C17        -8.3367    6.7664   -2.2032 C.ar      1 <0>        -0.1138
     22 C18        -7.7031    6.9568   -0.9922 C.ar      1 <0>        -0.1021
     23 C19        -6.5980    6.1839   -0.6529 C.ar      1 <0>         0.1282
     24 N3         -5.7903    6.1706    0.4791 N.am      1 <0>        -0.6466
     25 C20        -4.8216    5.2447    0.3783 C.2       1 <0>         0.5595
     26 O2         -3.9685    5.0073    1.2147 O.2       1 <0>        -0.5156
     27 F1         -8.5124    5.6299   -4.2767 F         1 <0>        -0.1317
     28 H2         -1.7536    1.5823   -2.9837 H         1 <0>         0.0785
     29 H3         -1.8630    3.3589   -2.9891 H         1 <0>         0.0727
     30 H4         -0.3676    2.5610   -2.4455 H         1 <0>         0.0635
     31 H5          1.0124    3.0351    0.4409 H         1 <0>         0.4101
     32 H6          2.4748    0.7181    1.1263 H         1 <0>         0.0892
     33 H7          2.6214    0.9752   -0.6289 H         1 <0>         0.0889
     34 H8          3.4487    3.2772   -0.2226 H         1 <0>         0.1369
     35 H9          3.3020    3.0201    1.5326 H         1 <0>         0.1386
     36 H10         5.7757    3.5694    1.4724 H         1 <0>         0.1243
     37 H11         6.8549    2.4493    0.6070 H         1 <0>         0.1259
     38 H12         5.7921    3.5460   -0.3073 H         1 <0>         0.1230
     39 H13         4.2148    0.2262    1.6867 H         1 <0>         0.1243
     40 H14         5.9610    0.5677    1.7371 H         1 <0>         0.1264
     41 H15         4.8293    1.5775    2.6688 H         1 <0>         0.1253
     42 H16        -1.3727    2.5447    3.0986 H         1 <0>         0.0839
     43 H17        -2.8030    1.4852    3.0947 H         1 <0>         0.0782
     44 H18        -1.2217    0.8476    2.5837 H         1 <0>         0.0838
     45 H19        -4.3321    3.2242   -2.4494 H         1 <0>         0.1589
     46 H20        -6.4300    4.2802   -3.4673 H         1 <0>         0.1437
     47 H21        -9.1944    7.3708   -2.4591 H         1 <0>         0.1485
     48 H22        -8.0661    7.7080   -0.3064 H         1 <0>         0.1415
     49 H23        -5.9107    6.7552    1.2437 H         1 <0>         0.4217
     50 N4          4.8260    1.8994    0.5714 N.4       1 <0>        -0.3942
     51 H24         4.9260    1.3387   -0.2829 H         1 <0>         0.4344
@<TRIPOS>BOND
     1    1    2 1
     2    1   28 1
     3    1   29 1
     4    1   30 1
     5    2    7 1
     6    2    3 2
     7    3    4 1
     8    3   16 1
     9    4    5 1
    10    4    6 1
    11    6    7 2
    12    6   15 1
    13    7    8 1
    14    8    9 2
    15    8   10 am
    16   10   11 1
    17   10   31 1
    18   11   12 1
    19   11   32 1
    20   11   33 1
    21   12   34 1
    22   12   35 1
    23   12   50 1
    24   13   36 1
    25   13   37 1
    26   13   38 1
    27   13   50 1
    28   14   39 1
    29   14   40 1
    30   14   41 1
    31   14   50 1
    32   15   42 1
    33   15   43 1
    34   15   44 1
    35   16   17 2
    36   16   45 1
    37   17   25 1
    38   17   18 1
    39   18   23 ar
    40   18   19 ar
    41   19   20 ar
    42   19   46 1
    43   20   21 ar
    44   20   27 1
    45   21   22 ar
    46   21   47 1
    47   22   23 ar
    48   22   48 1
    49   23   24 1
    50   24   25 am
    51   24   49 1
    52   25   26 2
    53   50   51 1
