@<TRIPOS>MOLECULE
ZINC03872070
   29    31     0     0     0
SMALL
USER_CHARGES

@<TRIPOS>ATOM
      1 C1         -0.0167    1.3795    0.0096 C.ar      1 <0>        -0.0927
      2 C2          1.1683    2.0940    0.0021 C.ar      1 <0>        -0.1229
      3 C3          2.3774    1.4303   -0.0130 C.ar      1 <0>        -0.0794
      4 C4          2.4038    0.0341   -0.0208 C.ar      1 <0>        -0.0750
      5 C5          1.2040   -0.6806   -0.0131 C.ar      1 <0>        -0.0800
      6 C6          0.0021   -0.0041    0.0020 C.ar      1 <0>        -0.1206
      7 C7          3.6945   -0.6834   -0.0374 C.2       1 <0>         0.2076
      8 C8          3.6865   -2.0422   -0.0503 C.2       1 <0>        -0.3115
      9 C9          4.9147   -2.7475   -0.0669 C.2       1 <0>         0.4227
     10 O1          4.9453   -3.9673   -0.0791 O.2       1 <0>        -0.4538
     11 C10         6.1531   -1.9509   -0.0693 C.ar      1 <0>        -0.2663
     12 C11         7.4124   -2.5640   -0.0858 C.ar      1 <0>         0.2193
     13 C12         8.5511   -1.7802   -0.0879 C.ar      1 <0>        -0.2051
     14 C13         8.4449   -0.3935   -0.0739 C.ar      1 <0>         0.1922
     15 C14         7.2019    0.2199   -0.0571 C.ar      1 <0>        -0.1832
     16 C15         6.0486   -0.5493   -0.0551 C.ar      1 <0>         0.1831
     17 O2          4.8303    0.0319   -0.0449 O.3       1 <0>        -0.2180
     18 O3          9.5695    0.3668   -0.0761 O.3       1 <0>        -0.4872
     19 O4          7.5139   -3.9173   -0.0990 O.3       1 <0>        -0.4722
     20 H1         -0.9606    1.9042    0.0260 H         1 <0>         0.1309
     21 H2          1.1464    3.1738    0.0078 H         1 <0>         0.1326
     22 H3          3.3016    1.9892   -0.0192 H         1 <0>         0.1349
     23 H4          1.2173   -1.7605   -0.0194 H         1 <0>         0.1361
     24 H5         -0.9265   -0.5555    0.0079 H         1 <0>         0.1347
     25 H6          2.7503   -2.5805   -0.0475 H         1 <0>         0.1636
     26 H7          9.5256   -2.2457   -0.1002 H         1 <0>         0.1502
     27 H8          7.1320    1.2975   -0.0459 H         1 <0>         0.1533
     28 H9          9.8879    0.5955   -0.9601 H         1 <0>         0.4037
     29 H10         7.5357   -4.3014   -0.9862 H         1 <0>         0.4030
@<TRIPOS>BOND
     1    1    6 ar
     2    1    2 ar
     3    1   20 1
     4    2    3 ar
     5    2   21 1
     6    3    4 ar
     7    3   22 1
     8    4    5 ar
     9    4    7 1
    10    5    6 ar
    11    5   23 1
    12    6   24 1
    13    7   17 1
    14    7    8 2
    15    8    9 1
    16    8   25 1
    17    9   10 2
    18    9   11 1
    19   11   16 ar
    20   11   12 ar
    21   12   13 ar
    22   12   19 1
    23   13   14 ar
    24   13   26 1
    25   14   15 ar
    26   14   18 1
    27   15   16 ar
    28   15   27 1
    29   16   17 1
    30   18   28 1
    31   19   29 1
@<TRIPOS>MOLECULE
ZINC03872070
   28    30     0     0     0
SMALL
USER_CHARGES

@<TRIPOS>ATOM
      1 C1         -0.0167    1.3797    0.0096 C.ar      1 <0>        -0.1070
      2 C2          1.1682    2.0946    0.0022 C.ar      1 <0>        -0.1239
      3 C3          2.3774    1.4315   -0.0129 C.ar      1 <0>        -0.0844
      4 C4          2.4042    0.0344   -0.0206 C.ar      1 <0>        -0.0523
      5 C5          1.2037   -0.6807   -0.0130 C.ar      1 <0>        -0.0872
      6 C6          0.0021   -0.0041    0.0020 C.ar      1 <0>        -0.1230
      7 C7          3.6938   -0.6822   -0.0372 C.2       1 <0>         0.1725
      8 C8          3.6987   -2.0599   -0.0503 C.2       1 <0>        -0.2684
      9 C9          4.9147   -2.7500   -0.0661 C.2       1 <0>         0.3652
     10 C10         6.1116   -2.0009   -0.0682 C.2       1 <0>        -0.3412
     11 C11         7.3668   -2.6443   -0.0844 C.2       1 <0>         0.2654
     12 C12         8.5111   -1.9002   -0.0865 C.2       1 <0>        -0.3783
     13 C13         8.4435   -0.4975   -0.0722 C.2       1 <0>         0.3617
     14 O1          9.5678    0.2204   -0.0740 O.2       1 <0>        -0.6670
     15 C14         7.2040    0.1518   -0.0566 C.2       1 <0>        -0.3151
     16 C15         6.0392   -0.5896   -0.0543 C.2       1 <0>         0.2114
     17 O2          4.8365    0.0229   -0.0448 O.3       1 <0>        -0.2195
     18 O3          7.4365   -3.9993   -0.0974 O.3       1 <0>        -0.4477
     19 O4          4.9436   -4.1007   -0.0786 O.3       1 <0>        -0.5790
     20 H1         -0.9606    1.9042    0.0260 H         1 <0>         0.1247
     21 H2          1.1460    3.1743    0.0078 H         1 <0>         0.1280
     22 H3          3.3014    1.9906   -0.0191 H         1 <0>         0.1359
     23 H4          1.2169   -1.7606   -0.0192 H         1 <0>         0.1351
     24 H5         -0.9266   -0.5554    0.0079 H         1 <0>         0.1291
     25 H6          2.7663   -2.6050   -0.0479 H         1 <0>         0.1462
     26 H7          9.4725   -2.3921   -0.0990 H         1 <0>         0.1160
     27 H8          7.1585    1.2308   -0.0456 H         1 <0>         0.1202
     28 H9          8.3389   -4.3466   -0.1079 H         1 <0>         0.3827
@<TRIPOS>BOND
     1    1    6 ar
     2    1    2 ar
     3    1   20 1
     4    2    3 ar
     5    2   21 1
     6    3    4 ar
     7    3   22 1
     8    4    5 ar
     9    4    7 1
    10    5    6 ar
    11    5   23 1
    12    6   24 1
    13    7   17 1
    14    7    8 2
    15    8    9 1
    16    8   25 1
    17    9   10 2
    18    9   19 1
    19   10   16 1
    20   10   11 1
    21   11   12 2
    22   11   18 1
    23   12   13 1
    24   12   26 1
    25   13   14 2
    26   13   15 1
    27   15   16 2
    28   15   27 1
    29   16   17 1
    30   18   28 1
@<TRIPOS>MOLECULE
ZINC13298313
   14    15     0     0     0
SMALL
USER_CHARGES

@<TRIPOS>ATOM
      1 C1         -0.0156    1.3003    0.0092 C.2       1 <0>         0.1322
      2 C2          1.3142    1.7608   -0.0010 C.2       1 <0>        -0.3439
      3 C3          2.1466    0.6305   -0.0151 C.2       1 <0>         0.3388
      4 N1          1.3284   -0.4537   -0.0131 N.pl3     1 <0>        -0.4509
      5 H1          1.6139   -1.3807   -0.0211 H         1 <0>         0.4488
      6 N2          0.0021   -0.0041    0.0020 N.2       1 <0>        -0.2651
      7 N3          3.4783    0.7987   -0.0265 N.2       1 <0>        -0.5375
      8 C4          4.0215    1.9806   -0.0249 C.2       1 <0>         0.4222
      9 N4          3.2972    3.1279   -0.0114 N.am      1 <0>        -0.6521
     10 H2          3.7507    3.9854   -0.0108 H         1 <0>         0.4267
     11 C5          1.9444    3.0809    0.0000 C.2       1 <0>         0.5744
     12 O1          1.2768    4.0999    0.0116 O.2       1 <0>        -0.5141
     13 H3         -0.8995    1.9206    0.0250 H         1 <0>         0.2012
     14 H4          5.0991    2.0521   -0.0345 H         1 <0>         0.2194
@<TRIPOS>BOND
     1    1    6 2
     2    1    2 1
     3    1   13 1
     4    2   11 1
     5    2    3 2
     6    3    4 1
     7    3    7 1
     8    4    5 1
     9    4    6 1
    10    7    8 2
    11    8    9 1
    12    8   14 1
    13    9   10 1
    14    9   11 am
    15   11   12 2
@<TRIPOS>MOLECULE
ZINC13298313
   13    14     0     0     0
SMALL
USER_CHARGES

@<TRIPOS>ATOM
      1 C1         -0.0126    1.0758    0.0080 C.2       1 <0>         0.1258
      2 C2          1.1221    1.9168    0.0016 C.ar      1 <0>        -0.3703
      3 C3          0.6506    3.2450    0.0127 C.ar      1 <0>         0.3560
      4 N1         -0.7107    3.1736    0.0251 N.pl3     1 <0>        -0.5016
      5 H1         -1.3194    3.9289    0.0346 H         1 <0>         0.4302
      6 N2         -1.0795    1.8225    0.0165 N.2       1 <0>        -0.3076
      7 N3          1.5352    4.2400    0.0089 N.ar      1 <0>        -0.6359
      8 C4          2.8259    3.9891   -0.0051 C.ar      1 <0>         0.3690
      9 N4          3.3127    2.7605   -0.0163 N.ar      1 <0>        -0.6420
     10 C5          2.5115    1.7032   -0.0128 C.ar      1 <0>         0.4964
     11 O1          3.0197    0.4485   -0.0233 O.3       1 <0>        -0.6778
     12 H2          0.0021   -0.0041    0.0020 H         1 <0>         0.1821
     13 H3          3.5156    4.8201   -0.0078 H         1 <0>         0.1757
@<TRIPOS>BOND
     1    1   12 1
     2    1    2 1
     3    1    6 2
     4    2   10 ar
     5    2    3 ar
     6    3    7 ar
     7    3    4 1
     8    4    5 1
     9    4    6 1
    10    7    8 ar
    11    8    9 ar
    12    8   13 1
    13    9   10 ar
    14   10   11 1
@<TRIPOS>MOLECULE
ZINC13298313
   13    14     0     0     0
SMALL
USER_CHARGES

@<TRIPOS>ATOM
      1 C1         -0.0161    1.3345    0.0094 C.2       1 <0>         0.1294
      2 C2          1.2909    1.7743   -0.0007 C.ar      1 <0>        -0.3581
      3 C3          1.9389    3.0325   -0.0006 C.ar      1 <0>         0.5139
      4 O1          1.2259    4.1812    0.0128 O.3       1 <0>        -0.6761
      5 N1          3.2620    3.0535   -0.0135 N.ar      1 <0>        -0.6737
      6 C4          3.9866    1.9444   -0.0263 C.ar      1 <0>         0.3828
      7 N2          3.4745    0.7401   -0.0275 N.ar      1 <0>        -0.6171
      8 C5          2.1384    0.5690   -0.0153 C.ar      1 <0>         0.3159
      9 N3          1.3242   -0.4640   -0.0131 N.2       1 <0>        -0.3404
     10 N4          0.0021   -0.0041    0.0020 N.pl3     1 <0>        -0.4588
     11 H1         -0.7846   -0.5715    0.0071 H         1 <0>         0.4331
     12 H2         -0.8973    1.9587    0.0252 H         1 <0>         0.1790
     13 H3          5.0624    2.0398   -0.0368 H         1 <0>         0.1700
@<TRIPOS>BOND
     1    1   10 1
     2    1    2 2
     3    1   12 1
     4    2    8 ar
     5    2    3 ar
     6    3    4 1
     7    3    5 ar
     8    5    6 ar
     9    6    7 ar
    10    6   13 1
    11    7    8 ar
    12    8    9 2
    13    9   10 1
    14   10   11 1
@<TRIPOS>MOLECULE
ZINC03869768
   31    33     0     0     0
SMALL
USER_CHARGES

@<TRIPOS>ATOM
      1 C1          0.9745   -0.2752   -0.9649 C.ar      1 <0>        -0.0474
      2 C2          2.1550    0.4346   -0.9693 C.ar      1 <0>        -0.1488
      3 C3          2.3800    1.4188   -0.0145 C.ar      1 <0>         0.1280
      4 C4          1.4162    1.6917    0.9485 C.ar      1 <0>        -0.1504
      5 C5          0.2327    0.9869    0.9606 C.ar      1 <0>        -0.0665
      6 C6          0.0021   -0.0041    0.0020 C.ar      1 <0>        -0.0625
      7 C7         -1.2634   -0.7608    0.0105 C.2       1 <0>         0.1356
      8 C8         -1.2167   -2.1184   -0.0957 C.2       1 <0>        -0.0454
      9 C9         -2.4259   -2.8610   -0.0886 C.2       1 <0>         0.4007
     10 O1         -2.4232   -4.0781   -0.1814 O.2       1 <0>        -0.4492
     11 C10        -3.6832   -2.1065    0.0355 C.ar      1 <0>        -0.2689
     12 C11        -4.9234   -2.7585    0.0517 C.ar      1 <0>         0.2243
     13 C12        -6.0821   -2.0144    0.1703 C.ar      1 <0>        -0.2086
     14 C13        -6.0155   -0.6287    0.2722 C.ar      1 <0>         0.1994
     15 C14        -4.7926    0.0230    0.2564 C.ar      1 <0>        -0.1859
     16 C15        -3.6188   -0.7060    0.1392 C.ar      1 <0>         0.1873
     17 O2         -2.4200   -0.0864    0.1283 O.3       1 <0>        -0.1981
     18 O3         -7.1599    0.0925    0.3877 O.3       1 <0>        -0.4869
     19 O4         -4.9864   -4.1104   -0.0487 O.3       1 <0>        -0.4727
     20 O5         -0.0202   -2.7570   -0.2082 O.3       1 <0>        -0.4492
     21 O6          3.5454    2.1157   -0.0224 O.3       1 <0>        -0.4978
     22 H1          0.7987   -1.0369   -1.7101 H         1 <0>         0.1366
     23 H2          2.9071    0.2256   -1.7157 H         1 <0>         0.1375
     24 H3          1.5954    2.4572    1.6889 H         1 <0>         0.1366
     25 H4         -0.5157    1.1995    1.7097 H         1 <0>         0.1340
     26 H5         -7.0416   -2.5100    0.1835 H         1 <0>         0.1512
     27 H6         -4.7536    1.0994    0.3359 H         1 <0>         0.1553
     28 H7         -7.4448    0.2345    1.3008 H         1 <0>         0.4049
     29 H8         -4.9577   -4.5698    0.8018 H         1 <0>         0.4037
     30 H9         -0.0926   -3.7187   -0.2778 H         1 <0>         0.4073
     31 H10         3.5195    2.9194   -0.5594 H         1 <0>         0.3958
@<TRIPOS>BOND
     1    1    6 ar
     2    1    2 ar
     3    1   22 1
     4    2    3 ar
     5    2   23 1
     6    3    4 ar
     7    3   21 1
     8    4    5 ar
     9    4   24 1
    10    5    6 ar
    11    5   25 1
    12    6    7 1
    13    7   17 1
    14    7    8 2
    15    8    9 1
    16    8   20 1
    17    9   10 2
    18    9   11 1
    19   11   16 ar
    20   11   12 ar
    21   12   13 ar
    22   12   19 1
    23   13   14 ar
    24   13   26 1
    25   14   15 ar
    26   14   18 1
    27   15   16 ar
    28   15   27 1
    29   16   17 1
    30   18   28 1
    31   19   29 1
    32   20   30 1
    33   21   31 1
@<TRIPOS>MOLECULE
ZINC03869768
   30    32     0     0     0
SMALL
USER_CHARGES

@<TRIPOS>ATOM
      1 C1          0.1387    1.1253   -0.8121 C.ar      1 <0>        -0.0723
      2 C2          1.3222    1.8291   -0.8163 C.ar      1 <0>        -0.1492
      3 C3          2.3802    1.4188   -0.0136 C.ar      1 <0>         0.1107
      4 C4          2.2493    0.2973    0.7970 C.ar      1 <0>        -0.1487
      5 C5          1.0698   -0.4131    0.8081 C.ar      1 <0>        -0.0549
      6 C6          0.0021   -0.0041    0.0020 C.ar      1 <0>        -0.0373
      7 C7         -1.2618   -0.7600    0.0105 C.2       1 <0>         0.1024
      8 C8         -1.2272   -2.1382   -0.0967 C.2       1 <0>        -0.0073
      9 C9         -2.4246   -2.8649   -0.0894 C.2       1 <0>         0.3353
     10 C10        -3.6396   -2.1555    0.0286 C.2       1 <0>        -0.3335
     11 C11        -4.8747   -2.8371    0.0419 C.2       1 <0>         0.2665
     12 C12        -6.0380   -2.1324    0.1573 C.2       1 <0>        -0.3754
     13 C13        -6.0102   -0.7324    0.2627 C.2       1 <0>         0.3645
     14 O1         -7.1532   -0.0530    0.3751 O.2       1 <0>        -0.6613
     15 C14        -4.7917   -0.0455    0.2513 C.2       1 <0>        -0.3154
     16 C15        -3.6071   -0.7470    0.1346 C.2       1 <0>         0.2120
     17 O2         -2.4247   -0.0966    0.1278 O.3       1 <0>        -0.2026
     18 O3         -4.9062   -4.1898   -0.0602 O.3       1 <0>        -0.4482
     19 O4         -2.4171   -4.2129   -0.1933 O.3       1 <0>        -0.5752
     20 O5         -0.0356   -2.7853   -0.2091 O.3       1 <0>        -0.4646
     21 O6          3.5454    2.1154   -0.0218 O.3       1 <0>        -0.5000
     22 H1         -0.6842    1.4472   -1.4330 H         1 <0>         0.1347
     23 H2          1.4286    2.7011   -1.4445 H         1 <0>         0.1321
     24 H3          3.0741   -0.0177    1.4190 H         1 <0>         0.1323
     25 H4          0.9692   -1.2847    1.4377 H         1 <0>         0.1358
     26 H5         -6.9838   -2.6538    0.1671 H         1 <0>         0.1177
     27 H6         -4.7769    1.0313    0.3327 H         1 <0>         0.1225
     28 H7         -5.7973   -4.5650   -0.0417 H         1 <0>         0.3845
     29 H8         -0.1151   -3.7466   -0.2784 H         1 <0>         0.4051
     30 H9          3.5829    2.8269    0.6320 H         1 <0>         0.3897
@<TRIPOS>BOND
     1    1    6 ar
     2    1    2 ar
     3    1   22 1
     4    2    3 ar
     5    2   23 1
     6    3    4 ar
     7    3   21 1
     8    4    5 ar
     9    4   24 1
    10    5    6 ar
    11    5   25 1
    12    6    7 1
    13    7   17 1
    14    7    8 2
    15    8    9 1
    16    8   20 1
    17    9   10 2
    18    9   19 1
    19   10   16 1
    20   10   11 1
    21   11   12 2
    22   11   18 1
    23   12   13 1
    24   12   26 1
    25   13   14 2
    26   13   15 1
    27   15   16 2
    28   15   27 1
    29   16   17 1
    30   18   28 1
    31   20   29 1
    32   21   30 1
@<TRIPOS>MOLECULE
ZINC18185774
   31    33     0     0     0
SMALL
USER_CHARGES

@<TRIPOS>ATOM
      1 C1         -0.0169    1.3929    0.0097 C.ar      1 <0>        -0.0705
      2 C2          1.1675    2.0983    0.0022 C.ar      1 <0>        -0.1309
      3 C3          2.3803    1.4240   -0.0135 C.ar      1 <0>         0.1099
      4 C4          2.4067    0.0300   -0.0212 C.ar      1 <0>         0.0792
      5 C5          1.2240   -0.6832   -0.0138 C.ar      1 <0>        -0.0904
      6 C6          0.0021   -0.0041    0.0020 C.ar      1 <0>        -0.0661
      7 C7         -1.2642   -0.7606    0.0105 C.2       1 <0>         0.2069
      8 C8         -2.4374   -0.0724    0.0203 C.2       1 <0>        -0.3067
      9 C9         -3.6620   -0.7813    0.0286 C.2       1 <0>         0.4226
     10 O1         -4.7331   -0.1964    0.0371 O.2       1 <0>        -0.4521
     11 C10        -3.5935   -2.2524    0.0260 C.ar      1 <0>        -0.2661
     12 C11        -4.7554   -3.0344    0.0332 C.ar      1 <0>         0.2196
     13 C12        -4.6484   -4.4128    0.0300 C.ar      1 <0>        -0.2046
     14 C13        -3.3955   -5.0163    0.0203 C.ar      1 <0>         0.1928
     15 C14        -2.2415   -4.2483    0.0131 C.ar      1 <0>        -0.1829
     16 C15        -2.3286   -2.8648    0.0157 C.ar      1 <0>         0.1832
     17 O2         -1.2147   -2.1022    0.0028 O.3       1 <0>        -0.2181
     18 O3         -3.3016   -6.3705    0.0182 O.3       1 <0>        -0.4872
     19 O4         -5.9771   -2.4436    0.0436 O.3       1 <0>        -0.4722
     20 O5          3.5971   -0.6274   -0.0366 O.3       1 <0>        -0.4831
     21 O6          3.5446    2.1239   -0.0217 O.3       1 <0>        -0.4848
     22 H1         -0.9593    1.9201    0.0260 H         1 <0>         0.1451
     23 H2          1.1515    3.1781    0.0081 H         1 <0>         0.1468
     24 H3          1.2430   -1.7630   -0.0205 H         1 <0>         0.1466
     25 H4         -2.4342    1.0076    0.0222 H         1 <0>         0.1649
     26 H5         -5.5400   -5.0224    0.0355 H         1 <0>         0.1504
     27 H6         -1.2739   -4.7281    0.0059 H         1 <0>         0.1535
     28 H7         -3.2809   -6.7620   -0.8658 H         1 <0>         0.4041
     29 H8         -6.3379   -2.2705   -0.8367 H         1 <0>         0.4034
     30 H9          3.9502   -0.8223    0.8423 H         1 <0>         0.3919
     31 H10         3.8907    2.3221    0.8592 H         1 <0>         0.3948
@<TRIPOS>BOND
     1    1    6 ar
     2    1    2 ar
     3    1   22 1
     4    2    3 ar
     5    2   23 1
     6    3    4 ar
     7    3   21 1
     8    4    5 ar
     9    4   20 1
    10    5    6 ar
    11    5   24 1
    12    6    7 1
    13    7   17 1
    14    7    8 2
    15    8    9 1
    16    8   25 1
    17    9   10 2
    18    9   11 1
    19   11   16 ar
    20   11   12 ar
    21   12   13 ar
    22   12   19 1
    23   13   14 ar
    24   13   26 1
    25   14   15 ar
    26   14   18 1
    27   15   16 ar
    28   15   27 1
    29   16   17 1
    30   18   28 1
    31   19   29 1
    32   20   30 1
    33   21   31 1
@<TRIPOS>MOLECULE
ZINC03874317
   33    35     0     0     0
SMALL
USER_CHARGES

@<TRIPOS>ATOM
      1 C1          2.0732    1.4062   -0.8308 C.ar      1 <0>        -0.0859
      2 C2          1.1849    2.0922    0.0020 C.ar      1 <0>        -0.0258
      3 C3          0.3126    1.3779    0.8279 C.ar      1 <0>        -0.1033
      4 C4          0.3308   -0.0046    0.8189 C.ar      1 <0>         0.0938
      5 C5          1.2167   -0.6850   -0.0116 C.ar      1 <0>         0.0764
      6 C6          2.0867    0.0236   -0.8354 C.ar      1 <0>         0.0966
      7 O1          2.9505   -0.6446   -1.6458 O.3       1 <0>        -0.4863
      8 O2          1.2322   -2.0446   -0.0183 O.3       1 <0>        -0.4787
      9 O3         -0.5174   -0.7003    1.6227 O.3       1 <0>        -0.4812
     10 C7          1.1683    3.5667    0.0096 C.2       1 <0>         0.1312
     11 C8          2.3519    4.2356    0.1004 C.2       1 <0>        -0.0374
     12 C9          2.3527    5.6546    0.1089 C.2       1 <0>         0.4012
     13 O4          3.3933    6.2877    0.1887 O.2       1 <0>        -0.4464
     14 C10         1.0501    6.3331    0.0174 C.ar      1 <0>        -0.2690
     15 C11         0.9572    7.7312    0.0184 C.ar      1 <0>         0.2250
     16 C12        -0.2849    8.3310   -0.0697 C.ar      1 <0>        -0.2079
     17 C13        -1.4331    7.5508   -0.1581 C.ar      1 <0>         0.2004
     18 C14        -1.3490    6.1675   -0.1597 C.ar      1 <0>        -0.1855
     19 C15        -0.1119    5.5470   -0.0726 C.ar      1 <0>         0.1879
     20 O5         -0.0133    4.2011   -0.0789 O.3       1 <0>        -0.1974
     21 O6         -2.6481    8.1504   -0.2432 O.3       1 <0>        -0.4866
     22 O7          2.0786    8.4907    0.1056 O.3       1 <0>        -0.4725
     23 O8          3.5237    3.5485    0.1828 O.3       1 <0>        -0.4491
     24 H1          2.7453    1.9555   -1.4734 H         1 <0>         0.1463
     25 H2         -0.3747    1.9053    1.4728 H         1 <0>         0.1442
     26 H3          3.8063   -0.8341   -1.2374 H         1 <0>         0.3987
     27 H4          0.6310   -2.4417   -0.6632 H         1 <0>         0.3936
     28 H5         -1.3687   -0.9054    1.2124 H         1 <0>         0.3924
     29 H6         -0.3642    9.4081   -0.0694 H         1 <0>         0.1517
     30 H7         -2.2476    5.5724   -0.2288 H         1 <0>         0.1557
     31 H8         -2.9359    8.3293   -1.1489 H         1 <0>         0.4053
     32 H9          2.4687    8.7158   -0.7501 H         1 <0>         0.4040
     33 H10         4.3069    4.1124    0.2436 H         1 <0>         0.4089
@<TRIPOS>BOND
     1    1    6 ar
     2    1    2 ar
     3    1   24 1
     4    2    3 ar
     5    2   10 1
     6    3    4 ar
     7    3   25 1
     8    4    5 ar
     9    4    9 1
    10    5    6 ar
    11    5    8 1
    12    6    7 1
    13    7   26 1
    14    8   27 1
    15    9   28 1
    16   10   20 1
    17   10   11 2
    18   11   12 1
    19   11   23 1
    20   12   13 2
    21   12   14 1
    22   14   19 ar
    23   14   15 ar
    24   15   16 ar
    25   15   22 1
    26   16   17 ar
    27   16   29 1
    28   17   18 ar
    29   17   21 1
    30   18   19 ar
    31   18   30 1
    32   19   20 1
    33   21   31 1
    34   22   32 1
    35   23   33 1
@<TRIPOS>MOLECULE
ZINC03874317
   32    34     0     0     0
SMALL
USER_CHARGES

@<TRIPOS>ATOM
      1 C1          2.0771    1.4053   -0.8287 C.ar      1 <0>        -0.0905
      2 C2          1.1858    2.0921    0.0020 C.ar      1 <0>        -0.0015
      3 C3          0.3103    1.3773    0.8258 C.ar      1 <0>        -0.1070
      4 C4          0.3284   -0.0047    0.8166 C.ar      1 <0>         0.0918
      5 C5          1.2173   -0.6854   -0.0113 C.ar      1 <0>         0.0627
      6 C6          2.0900    0.0232   -0.8331 C.ar      1 <0>         0.0937
      7 O1          2.9560   -0.6454   -1.6409 O.3       1 <0>        -0.4882
      8 O2          1.2332   -2.0446   -0.0173 O.3       1 <0>        -0.4810
      9 O3         -0.5225   -0.7004    1.6174 O.3       1 <0>        -0.4835
     10 C7          1.1696    3.5647    0.0095 C.2       1 <0>         0.0969
     11 C8          2.3645    4.2546    0.1013 C.2       1 <0>         0.0017
     12 C9          2.3581    5.6552    0.1091 C.2       1 <0>         0.3347
     13 C10         1.1162    6.3213    0.0219 C.2       1 <0>        -0.3328
     14 C11         1.0516    7.7306    0.0250 C.2       1 <0>         0.2668
     15 C12        -0.1591    8.3550   -0.0605 C.2       1 <0>        -0.3747
     16 C13        -1.3400    7.6005   -0.1516 C.2       1 <0>         0.3649
     17 O4         -2.5185    8.2209   -0.2352 O.2       1 <0>        -0.6597
     18 C14        -1.2886    6.2026   -0.1556 C.2       1 <0>        -0.3140
     19 C15        -0.0694    5.5584   -0.0695 C.2       1 <0>         0.2123
     20 O5         -0.0059    4.2104   -0.0783 O.3       1 <0>        -0.2019
     21 O6          2.1901    8.4635    0.1132 O.3       1 <0>        -0.4481
     22 O7          3.5130    6.3524    0.1984 O.3       1 <0>        -0.5726
     23 O8          3.5409    3.5760    0.1840 O.3       1 <0>        -0.4646
     24 H1          2.7513    1.9542   -1.4694 H         1 <0>         0.1458
     25 H2         -0.3788    1.9047    1.4687 H         1 <0>         0.1447
     26 H3          3.8105   -0.8352   -1.2299 H         1 <0>         0.3943
     27 H4          0.6340   -2.4421   -0.6639 H         1 <0>         0.3880
     28 H5         -1.3725   -0.9053    1.2042 H         1 <0>         0.3891
     29 H6         -0.2092    9.4338   -0.0579 H         1 <0>         0.1182
     30 H7         -2.2003    5.6280   -0.2254 H         1 <0>         0.1230
     31 H8          2.0440    9.4194    0.1078 H         1 <0>         0.3850
     32 H9          4.3201    4.1455    0.2445 H         1 <0>         0.4068
@<TRIPOS>BOND
     1    1    6 ar
     2    1    2 ar
     3    1   24 1
     4    2    3 ar
     5    2   10 1
     6    3    4 ar
     7    3   25 1
     8    4    5 ar
     9    4    9 1
    10    5    6 ar
    11    5    8 1
    12    6    7 1
    13    7   26 1
    14    8   27 1
    15    9   28 1
    16   10   20 1
    17   10   11 2
    18   11   12 1
    19   11   23 1
    20   12   13 2
    21   12   22 1
    22   13   19 1
    23   13   14 1
    24   14   15 2
    25   14   21 1
    26   15   16 1
    27   15   29 1
    28   16   17 2
    29   16   18 1
    30   18   19 2
    31   18   30 1
    32   19   20 1
    33   21   31 1
    34   23   32 1
@<TRIPOS>MOLECULE
ZINC06093399
   30    32     0     0     0
SMALL
USER_CHARGES
7,8-dihydroxy-3-(4-hydroxyphenyl)chromen-4-one
@<TRIPOS>ATOM
      1 C1          6.4988    2.9864   -0.9706 C.ar      1 <0>        -0.0446
      2 C2          7.7389    3.5903   -0.9728 C.ar      1 <0>        -0.1607
      3 C3          8.7082    3.1917   -0.0627 C.ar      1 <0>         0.1616
      4 C4          8.4311    2.1888    0.8561 C.ar      1 <0>        -0.2143
      5 C5          7.1910    1.5850    0.8671 C.ar      1 <0>        -0.0698
      6 C6          6.2156    1.9830   -0.0455 C.ar      1 <0>        -0.0710
      7 C7          4.8809    1.3358   -0.0363 C.2       1 <0>        -0.2410
      8 C8          4.7680   -0.0177   -0.0426 C.2       1 <0>         0.1311
      9 O1          3.5865   -0.6402   -0.0351 O.3       1 <0>        -0.2094
     10 C9          2.4066    0.0121   -0.0208 C.ar      1 <0>         0.1502
     11 C10         2.3728    1.4173   -0.0129 C.ar      1 <0>        -0.2242
     12 C11         3.6529    2.1484   -0.0207 C.2       1 <0>         0.4329
     13 O2          3.6929    3.3668   -0.0149 O.2       1 <0>        -0.4522
     14 C12         1.1528    2.0943    0.0023 C.ar      1 <0>        -0.0249
     15 C13        -0.0168    1.3874    0.0097 C.ar      1 <0>        -0.1467
     16 C14         0.0021   -0.0041    0.0020 C.ar      1 <0>         0.1309
     17 C15         1.2067   -0.6938   -0.0132 C.ar      1 <0>         0.0372
     18 O3          1.2146   -2.0545   -0.0201 O.3       1 <0>        -0.4840
     19 O4         -1.1686   -0.6934    0.0090 O.3       1 <0>        -0.4841
     20 O5          9.9312    3.7844   -0.0714 O.3       1 <0>        -0.5096
     21 H1          5.7465    3.2939   -1.6819 H         1 <0>         0.1292
     22 H2          7.9576    4.3707   -1.6867 H         1 <0>         0.1311
     23 H3          9.1873    1.8811    1.5632 H         1 <0>         0.1293
     24 H4          6.9762    0.8044    1.5820 H         1 <0>         0.1252
     25 H5          5.6686   -0.6137   -0.0537 H         1 <0>         0.2022
     26 H6          1.1328    3.1741    0.0079 H         1 <0>         0.1520
     27 H7         -0.9610    1.9117    0.0170 H         1 <0>         0.1468
     28 H8          0.2652   -2.6101   -0.0141 H         1 <0>         0.4192
     29 H9         -1.1593   -1.7933    0.0030 H         1 <0>         0.4234
     30 H10        10.7002    3.4694    0.6493 H         1 <0>         0.4341
@<TRIPOS>BOND
     1    1    6 ar
     2    1    2 ar
     3    1   21 1
     4    2    3 ar
     5    2   22 1
     6    3    4 ar
     7    3   20 1
     8    4    5 ar
     9    4   23 1
    10    5    6 ar
    11    5   24 1
    12    6    7 1
    13    7   12 1
    14    7    8 2
    15    8    9 1
    16    8   25 1
    17    9   10 1
    18   10   17 ar
    19   10   11 ar
    20   11   12 1
    21   11   14 ar
    22   12   13 2
    23   14   15 ar
    24   14   26 1
    25   15   16 ar
    26   15   27 1
    27   16   17 ar
    28   16   19 1
    29   17   18 1
    30   18   28 1
    31   19   29 1
    32   20   30 1
@<TRIPOS>MOLECULE
ZINC00057908
   19    20     0     0     0
SMALL
USER_CHARGES

@<TRIPOS>ATOM
      1 C1         -0.0178    1.4600    0.0101 C.2       1 <0>         0.0007
      2 C2          1.1707    2.1184    0.0023 C.2       1 <0>        -0.2411
      3 C3          2.3765    1.3882   -0.0132 C.2       1 <0>         0.5072
      4 O1          3.4351    1.9907   -0.0201 O.2       1 <0>        -0.4571
      5 O2          2.3880    0.0463   -0.0199 O.3       1 <0>        -0.2689
      6 C4          1.2420   -0.6692   -0.0129 C.ar      1 <0>         0.1565
      7 C5          0.0021   -0.0041    0.0020 C.ar      1 <0>        -0.1532
      8 C6         -1.1889   -0.7400    0.0089 C.ar      1 <0>        -0.0652
      9 C7         -1.1392   -2.1173    0.0006 C.ar      1 <0>         0.0622
     10 C8          0.0935   -2.7762   -0.0142 C.ar      1 <0>         0.1427
     11 C9          1.2750   -2.0558   -0.0207 C.ar      1 <0>        -0.1495
     12 O3          0.1320   -4.1337   -0.0219 O.3       1 <0>        -0.4790
     13 O4         -2.2930   -2.8376    0.0072 O.3       1 <0>        -0.4806
     14 H1         -0.9519    2.0019    0.0263 H         1 <0>         0.1577
     15 H2          1.1916    3.1982    0.0075 H         1 <0>         0.1680
     16 H3         -2.1414   -0.2311    0.0211 H         1 <0>         0.1526
     17 H4          2.2229   -2.5733   -0.0322 H         1 <0>         0.1562
     18 H5          0.1350   -4.5221   -0.9075 H         1 <0>         0.3989
     19 H6         -2.6349   -3.0408   -0.8742 H         1 <0>         0.3917
@<TRIPOS>BOND
     1    1    7 1
     2    1    2 2
     3    1   14 1
     4    2    3 1
     5    2   15 1
     6    3    4 2
     7    3    5 1
     8    5    6 1
     9    6   11 ar
    10    6    7 ar
    11    7    8 ar
    12    8    9 ar
    13    8   16 1
    14    9   10 ar
    15    9   13 1
    16   10   11 ar
    17   10   12 1
    18   11   17 1
    19   12   18 1
    20   13   19 1
@<TRIPOS>MOLECULE
ZINC03871576
   30    32     0     0     0
SMALL
USER_CHARGES

@<TRIPOS>ATOM
      1 C1         -0.0169    1.3935    0.0097 C.ar      1 <0>        -0.0604
      2 C2          1.1676    2.0963    0.0022 C.ar      1 <0>        -0.1497
      3 C3          2.3803    1.4179   -0.0135 C.ar      1 <0>         0.1360
      4 C4          2.4038    0.0284   -0.0212 C.ar      1 <0>        -0.1474
      5 C5          1.2241   -0.6823   -0.0133 C.ar      1 <0>        -0.0612
      6 C6          0.0021   -0.0041    0.0020 C.ar      1 <0>        -0.0853
      7 C7         -1.2639   -0.7610    0.0105 C.2       1 <0>         0.2092
      8 C8         -1.2134   -2.1203    0.0083 C.2       1 <0>        -0.3116
      9 C9         -2.4177   -2.8631    0.0169 C.2       1 <0>         0.4226
     10 O1         -2.4099   -4.0836    0.0156 O.2       1 <0>        -0.4538
     11 C10        -3.6809   -2.1061    0.0279 C.ar      1 <0>        -0.2659
     12 C11        -4.9199   -2.7591    0.0374 C.ar      1 <0>         0.2192
     13 C12        -6.0832   -2.0121    0.0480 C.ar      1 <0>        -0.2049
     14 C13        -6.0212   -0.6227    0.0493 C.ar      1 <0>         0.1922
     15 C14        -4.7984    0.0300    0.0400 C.ar      1 <0>        -0.1830
     16 C15        -3.6212   -0.7020    0.0293 C.ar      1 <0>         0.1830
     17 O2         -2.4220   -0.0821    0.0257 O.3       1 <0>        -0.2182
     18 O3         -7.1695    0.1013    0.0593 O.3       1 <0>        -0.4872
     19 O4         -4.9782   -4.1150    0.0356 O.3       1 <0>        -0.4722
     20 O5          3.5455    2.1145   -0.0218 O.3       1 <0>        -0.4965
     21 H1         -0.9589    1.9215    0.0260 H         1 <0>         0.1404
     22 H2          1.1538    3.1762    0.0081 H         1 <0>         0.1393
     23 H3          3.3485   -0.4949   -0.0338 H         1 <0>         0.1414
     24 H4          1.2432   -1.7622   -0.0196 H         1 <0>         0.1415
     25 H5         -0.2608   -2.6290   -0.0002 H         1 <0>         0.1637
     26 H6         -7.0423   -2.5086    0.0550 H         1 <0>         0.1502
     27 H7         -4.7627    1.1094    0.0411 H         1 <0>         0.1534
     28 H8         -7.4952    0.3100    0.9456 H         1 <0>         0.4037
     29 H9         -4.9875   -4.5094    0.9185 H         1 <0>         0.4031
     30 H10         3.8920    2.3119    0.8591 H         1 <0>         0.3984
@<TRIPOS>BOND
     1    1    6 ar
     2    1    2 ar
     3    1   21 1
     4    2    3 ar
     5    2   22 1
     6    3    4 ar
     7    3   20 1
     8    4    5 ar
     9    4   23 1
    10    5    6 ar
    11    5   24 1
    12    6    7 1
    13    7   17 1
    14    7    8 2
    15    8    9 1
    16    8   25 1
    17    9   10 2
    18    9   11 1
    19   11   16 ar
    20   11   12 ar
    21   12   13 ar
    22   12   19 1
    23   13   14 ar
    24   13   26 1
    25   14   15 ar
    26   14   18 1
    27   15   16 ar
    28   15   27 1
    29   16   17 1
    30   18   28 1
    31   19   29 1
    32   20   30 1
@<TRIPOS>MOLECULE
ZINC03871576
   29    31     0     0     0
SMALL
USER_CHARGES

@<TRIPOS>ATOM
      1 C1         -0.0169    1.3945    0.0097 C.ar      1 <0>        -0.0666
      2 C2          1.1672    2.0969    0.0022 C.ar      1 <0>        -0.1480
      3 C3          2.3804    1.4183   -0.0135 C.ar      1 <0>         0.1175
      4 C4          2.4042    0.0284   -0.0212 C.ar      1 <0>        -0.1471
      5 C5          1.2251   -0.6825   -0.0138 C.ar      1 <0>        -0.0696
      6 C6          0.0021   -0.0041    0.0020 C.ar      1 <0>        -0.0607
      7 C7         -1.2623   -0.7603    0.0105 C.2       1 <0>         0.1733
      8 C8         -1.2238   -2.1392    0.0085 C.2       1 <0>        -0.2675
      9 C9         -2.4161   -2.8666    0.0170 C.2       1 <0>         0.3649
     10 C10        -3.6370   -2.1554    0.0275 C.2       1 <0>        -0.3407
     11 C11        -4.8707   -2.8387    0.0369 C.2       1 <0>         0.2653
     12 C12        -6.0384   -2.1317    0.0475 C.2       1 <0>        -0.3780
     13 C13        -6.0158   -0.7277    0.0485 C.2       1 <0>         0.3615
     14 O1         -7.1627   -0.0461    0.0589 O.2       1 <0>        -0.6669
     15 C14        -4.7977   -0.0391    0.0393 C.2       1 <0>        -0.3147
     16 C15        -3.6098   -0.7430    0.0291 C.2       1 <0>         0.2111
     17 O2         -2.4272   -0.0920    0.0257 O.3       1 <0>        -0.2196
     18 O3         -4.8969   -4.1953    0.0351 O.3       1 <0>        -0.4477
     19 O4         -2.4024   -4.2178    0.0147 O.3       1 <0>        -0.5784
     20 O5          3.5452    2.1149   -0.0218 O.3       1 <0>        -0.4988
     21 H1         -0.9589    1.9225    0.0260 H         1 <0>         0.1416
     22 H2          1.1536    3.1768    0.0081 H         1 <0>         0.1349
     23 H3          3.3490   -0.4946   -0.0334 H         1 <0>         0.1360
     24 H4          1.2446   -1.7623   -0.0201 H         1 <0>         0.1407
     25 H5         -0.2747   -2.6546   -0.0001 H         1 <0>         0.1464
     26 H6         -6.9835   -2.6543    0.0547 H         1 <0>         0.1160
     27 H7         -4.7867    1.0408    0.0398 H         1 <0>         0.1203
     28 H8         -5.7877   -4.5715    0.0420 H         1 <0>         0.3828
     29 H9          3.8917    2.3124    0.8591 H         1 <0>         0.3921
@<TRIPOS>BOND
     1    1    6 ar
     2    1    2 ar
     3    1   21 1
     4    2    3 ar
     5    2   22 1
     6    3    4 ar
     7    3   20 1
     8    4    5 ar
     9    4   23 1
    10    5    6 ar
    11    5   24 1
    12    6    7 1
    13    7   17 1
    14    7    8 2
    15    8    9 1
    16    8   25 1
    17    9   10 2
    18    9   19 1
    19   10   16 1
    20   10   11 1
    21   11   12 2
    22   11   18 1
    23   12   13 1
    24   12   26 1
    25   13   14 2
    26   13   15 1
    27   15   16 2
    28   15   27 1
    29   16   17 1
    30   18   28 1
    31   20   29 1
@<TRIPOS>MOLECULE
ZINC00120273
   30    32     0     0     0
SMALL
USER_CHARGES

@<TRIPOS>ATOM
      1 C1         -0.0163    1.3802    0.0111 C.ar      1 <0>        -0.0990
      2 C2          0.2374    0.3974    0.9516 C.ar      1 <0>        -0.1230
      3 C3          1.4405   -0.2770    0.9418 C.ar      1 <0>        -0.0655
      4 C4          2.4040    0.0343   -0.0206 C.ar      1 <0>        -0.0531
      5 C5          2.1410    1.0276   -0.9670 C.ar      1 <0>        -0.0849
      6 C6          0.9335    1.6938   -0.9452 C.ar      1 <0>        -0.1245
      7 C7          3.6939   -0.6826   -0.0372 C.2       1 <0>         0.1351
      8 C8          3.6900   -2.0410    0.0540 C.2       1 <0>        -0.0465
      9 C9          4.9235   -2.7456    0.0389 C.2       1 <0>         0.4008
     10 O1          4.9595   -3.9630    0.1183 O.2       1 <0>        -0.4497
     11 C10         6.1558   -1.9502   -0.0767 C.ar      1 <0>        -0.2692
     12 C11         7.4165   -2.5618   -0.0999 C.ar      1 <0>         0.2242
     13 C12         8.5506   -1.7796   -0.2100 C.ar      1 <0>        -0.2087
     14 C13         8.4394   -0.3957   -0.2971 C.ar      1 <0>         0.1994
     15 C14         7.1961    0.2162   -0.2748 C.ar      1 <0>        -0.1861
     16 C15         6.0463   -0.5513   -0.1648 C.ar      1 <0>         0.1875
     17 O2          4.8285    0.0294   -0.1473 O.3       1 <0>        -0.1979
     18 O3          9.5600    0.3630   -0.4045 O.3       1 <0>        -0.4868
     19 O4          7.5229   -3.9121   -0.0144 O.3       1 <0>        -0.4727
     20 O5          2.5145   -2.7180    0.1592 O.3       1 <0>        -0.4489
     21 H1         -0.9619    1.9019    0.0207 H         1 <0>         0.1278
     22 H2         -0.5083    0.1581    1.6953 H         1 <0>         0.1307
     23 H3          1.6374   -1.0436    1.6767 H         1 <0>         0.1313
     24 H4          2.8815    1.2735   -1.7137 H         1 <0>         0.1284
     25 H5          0.7287    2.4620   -1.6762 H         1 <0>         0.1298
     26 H6          9.5255   -2.2439   -0.2282 H         1 <0>         0.1512
     27 H7          7.1227    1.2915   -0.3431 H         1 <0>         0.1553
     28 H8          9.8402    0.5239   -1.3159 H         1 <0>         0.4048
     29 H9          7.5088   -4.3627   -0.8698 H         1 <0>         0.4035
     30 H10         2.6173   -3.6777    0.2183 H         1 <0>         0.4067
@<TRIPOS>BOND
     1    1    6 ar
     2    1    2 ar
     3    1   21 1
     4    2    3 ar
     5    2   22 1
     6    3    4 ar
     7    3   23 1
     8    4    5 ar
     9    4    7 1
    10    5    6 ar
    11    5   24 1
    12    6   25 1
    13    7   17 1
    14    7    8 2
    15    8    9 1
    16    8   20 1
    17    9   10 2
    18    9   11 1
    19   11   16 ar
    20   11   12 ar
    21   12   13 ar
    22   12   19 1
    23   13   14 ar
    24   13   26 1
    25   14   15 ar
    26   14   18 1
    27   15   16 ar
    28   15   27 1
    29   16   17 1
    30   18   28 1
    31   19   29 1
    32   20   30 1
@<TRIPOS>MOLECULE
ZINC00039111
   31    33     0     0     0
SMALL
USER_CHARGES

@<TRIPOS>ATOM
      1 C1          0.9742   -0.2756   -0.9644 C.ar      1 <0>        -0.0745
      2 C2          2.1570    0.4328   -0.9701 C.ar      1 <0>        -0.1346
      3 C3          2.3856    1.4156   -0.0177 C.ar      1 <0>         0.1033
      4 C4          1.4202    1.6919    0.9495 C.ar      1 <0>         0.0786
      5 C5          0.2328    0.9864    0.9617 C.ar      1 <0>        -0.0758
      6 C6          0.0021   -0.0041    0.0020 C.ar      1 <0>        -0.0456
      7 C7         -1.2635   -0.7604    0.0100 C.2       1 <0>         0.1403
      8 C8         -2.4368   -0.0754    0.1235 C.2       1 <0>        -0.0467
      9 C9         -3.6626   -0.7880    0.1323 C.2       1 <0>         0.4008
     10 O1         -4.7322   -0.2087    0.2318 O.2       1 <0>        -0.4629
     11 C10        -3.5944   -2.2557    0.0159 C.ar      1 <0>        -0.2366
     12 C11        -4.7512   -3.0365    0.0154 C.ar      1 <0>        -0.0073
     13 C12        -4.6525   -4.3943   -0.0945 C.ar      1 <0>        -0.1753
     14 C13        -3.4042   -5.0031   -0.2055 C.ar      1 <0>         0.1824
     15 C14        -2.2474   -4.2422   -0.2064 C.ar      1 <0>        -0.1738
     16 C15        -2.3310   -2.8613   -0.0960 C.ar      1 <0>         0.1711
     17 O2         -1.2180   -2.0989   -0.1002 O.3       1 <0>        -0.1986
     18 O3         -3.3214   -6.3539   -0.3130 O.3       1 <0>        -0.4899
     19 O4         -2.4315    1.2815    0.2279 O.3       1 <0>        -0.4510
     20 O5          1.6479    2.6559    1.8814 O.3       1 <0>        -0.4836
     21 O6          3.5534    2.1101   -0.0273 O.3       1 <0>        -0.4861
     22 H1          0.7972   -1.0372   -1.7094 H         1 <0>         0.1379
     23 H2          2.9076    0.2220   -1.7175 H         1 <0>         0.1421
     24 H3         -0.5155    1.1990    1.7108 H         1 <0>         0.1431
     25 H4         -5.7208   -2.5688    0.1018 H         1 <0>         0.1490
     26 H5         -5.5471   -4.9994   -0.0951 H         1 <0>         0.1454
     27 H6         -1.2834   -4.7216   -0.2925 H         1 <0>         0.1536
     28 H7         -3.3428   -6.6780   -1.2239 H         1 <0>         0.4038
     29 H8         -3.3122    1.6736    0.3036 H         1 <0>         0.4078
     30 H9          1.3507    3.5371    1.6164 H         1 <0>         0.3905
     31 H10         3.5286    2.9137   -0.5648 H         1 <0>         0.3925
@<TRIPOS>BOND
     1    1    6 ar
     2    1    2 ar
     3    1   22 1
     4    2    3 ar
     5    2   23 1
     6    3    4 ar
     7    3   21 1
     8    4    5 ar
     9    4   20 1
    10    5    6 ar
    11    5   24 1
    12    6    7 1
    13    7   17 1
    14    7    8 2
    15    8    9 1
    16    8   19 1
    17    9   10 2
    18    9   11 1
    19   11   16 ar
    20   11   12 ar
    21   12   13 ar
    22   12   25 1
    23   13   14 ar
    24   13   26 1
    25   14   15 ar
    26   14   18 1
    27   15   16 ar
    28   15   27 1
    29   16   17 1
    30   18   28 1
    31   19   29 1
    32   20   30 1
    33   21   31 1
@<TRIPOS>MOLECULE
ZINC00517261
   35    37     0     0     0
SMALL
USER_CHARGES

@<TRIPOS>ATOM
      1 C1          2.3589    0.6470    0.7586 C.3       1 <0>         0.0223
      2 O1          1.5806   -0.5228    0.4979 O.3       1 <0>        -0.3046
      3 C2          1.4050   -0.8698   -0.8053 C.ar      1 <0>         0.0999
      4 C3          1.9734   -0.1054   -1.8063 C.ar      1 <0>        -0.1620
      5 C4          1.7913   -0.4653   -3.1446 C.ar      1 <0>        -0.0203
      6 C5          1.0351   -1.5966   -3.4638 C.ar      1 <0>        -0.0846
      7 C6          0.4712   -2.3541   -2.4598 C.ar      1 <0>        -0.1098
      8 C7          0.6567   -1.9995   -1.1308 C.ar      1 <0>         0.0974
      9 O2          0.1029   -2.7528   -0.1448 O.3       1 <0>        -0.4841
     10 C8          2.3950    0.3469   -4.2171 C.2       1 <0>         0.1312
     11 C9          3.0776   -0.2846   -5.2130 C.2       1 <0>        -0.0399
     12 C10         3.6640    0.4829   -6.2526 C.2       1 <0>         0.4007
     13 O3          4.2823   -0.0479   -7.1614 O.2       1 <0>        -0.4475
     14 C11         3.4970    1.9438   -6.1925 C.ar      1 <0>        -0.2690
     15 C12         4.0422    2.7786   -7.1770 C.ar      1 <0>         0.2248
     16 C13         3.8632    4.1461   -7.0855 C.ar      1 <0>        -0.2084
     17 C14         3.1468    4.6876   -6.0232 C.ar      1 <0>         0.1999
     18 C15         2.6052    3.8681   -5.0455 C.ar      1 <0>        -0.1864
     19 C16         2.7735    2.4937   -5.1200 C.ar      1 <0>         0.1873
     20 O4          2.2470    1.6822   -4.1790 O.3       1 <0>        -0.1984
     21 O5          2.9770    6.0321   -5.9430 O.3       1 <0>        -0.4869
     22 O6          4.7412    2.2485   -8.2125 O.3       1 <0>        -0.4726
     23 O7          3.1964   -1.6403   -5.2106 O.3       1 <0>        -0.4473
     24 H1          3.3619    0.5138    0.3533 H         1 <0>         0.0571
     25 H2          1.8879    1.5094    0.2868 H         1 <0>         0.0576
     26 H3          2.4205    0.8101    1.8345 H         1 <0>         0.1047
     27 H4          2.5567    0.7682   -1.5552 H         1 <0>         0.1392
     28 H5          0.8923   -1.8769   -4.4970 H         1 <0>         0.1391
     29 H6         -0.1129   -3.2281   -2.7077 H         1 <0>         0.1457
     30 H7         -0.7889   -2.4767    0.1073 H         1 <0>         0.3912
     31 H8          4.2808    4.7958   -7.8404 H         1 <0>         0.1515
     32 H9          2.0512    4.3003   -4.2253 H         1 <0>         0.1549
     33 H10         2.1822    6.3554   -6.3888 H         1 <0>         0.4051
     34 H11         4.1983    2.0283   -8.9819 H         1 <0>         0.4039
     35 H12         3.6982   -1.9925   -5.9584 H         1 <0>         0.4078
@<TRIPOS>BOND
     1    1    2 1
     2    1   24 1
     3    1   25 1
     4    1   26 1
     5    2    3 1
     6    3    8 ar
     7    3    4 ar
     8    4    5 ar
     9    4   27 1
    10    5    6 ar
    11    5   10 1
    12    6    7 ar
    13    6   28 1
    14    7    8 ar
    15    7   29 1
    16    8    9 1
    17    9   30 1
    18   10   20 1
    19   10   11 2
    20   11   12 1
    21   11   23 1
    22   12   13 2
    23   12   14 1
    24   14   19 ar
    25   14   15 ar
    26   15   16 ar
    27   15   22 1
    28   16   17 ar
    29   16   31 1
    30   17   18 ar
    31   17   21 1
    32   18   19 ar
    33   18   32 1
    34   19   20 1
    35   21   33 1
    36   22   34 1
    37   23   35 1
@<TRIPOS>MOLECULE
ZINC40864350
   28    30     0     0     0
SMALL
USER_CHARGES

@<TRIPOS>ATOM
      1 C1         -0.0167    1.3786    0.0096 C.ar      1 <0>        -0.0509
      2 C2          1.1690    2.0868    0.0021 C.ar      1 <0>        -0.1146
      3 C3          2.3809    1.4089   -0.0131 C.ar      1 <0>         0.1921
      4 C4          2.3963    0.0203   -0.0206 C.ar      1 <0>        -0.1145
      5 C5          1.2072   -0.6821   -0.0130 C.ar      1 <0>        -0.0470
      6 C6          0.0021   -0.0041    0.0020 C.ar      1 <0>        -0.1877
      7 C7         -1.2936   -0.7737    0.0102 C.3       1 <0>         0.5108
      8 F1         -1.7070   -1.0047   -1.3062 F         1 <0>        -0.1745
      9 F2         -1.1050   -1.9974    0.6614 F         1 <0>        -0.1748
     10 F3         -2.2715   -0.0333    0.6830 F         1 <0>        -0.1753
     11 N1          3.5850    2.1242   -0.0212 N.pl3     1 <0>        -0.3376
     12 C8          4.7441    1.7480    0.5959 C.ar      1 <0>         0.3768
     13 C9          5.6883    2.7578    0.3250 C.ar      1 <0>        -0.3337
     14 C10         5.0392    3.7293   -0.4678 C.2       1 <0>         0.1206
     15 N2          3.8103    3.3457   -0.6685 N.2       1 <0>        -0.2463
     16 C11         6.9864    2.6158    0.8519 C.ar      1 <0>         0.5233
     17 N3          7.2583    1.5372    1.5786 N.ar      1 <0>        -0.6050
     18 C12         6.3390    0.6159    1.8061 C.ar      1 <0>         0.3959
     19 N4          5.1142    0.7043    1.3352 N.ar      1 <0>        -0.5721
     20 N5          7.9533    3.5739    0.6186 N.pl3     1 <0>        -0.8165
     21 H1         -0.9594    1.9052    0.0259 H         1 <0>         0.1470
     22 H2          1.1537    3.1667    0.0077 H         1 <0>         0.1457
     23 H3          3.3372   -0.5098   -0.0328 H         1 <0>         0.1482
     24 H4          1.2185   -1.7620   -0.0193 H         1 <0>         0.1477
     25 H5          5.4869    4.6359   -0.8470 H         1 <0>         0.2025
     26 H6          6.6042   -0.2446    2.4024 H         1 <0>         0.2090
     27 H7          7.7420    4.3566    0.0860 H         1 <0>         0.4154
     28 H8          8.8437    3.4641    0.9873 H         1 <0>         0.4154
@<TRIPOS>BOND
     1    1    6 ar
     2    1    2 ar
     3    1   21 1
     4    2    3 ar
     5    2   22 1
     6    3    4 ar
     7    3   11 1
     8    4    5 ar
     9    4   23 1
    10    5    6 ar
    11    5   24 1
    12    6    7 1
    13    7    8 1
    14    7    9 1
    15    7   10 1
    16   11   15 1
    17   11   12 1
    18   12   19 ar
    19   12   13 ar
    20   13   14 1
    21   13   16 ar
    22   14   15 2
    23   14   25 1
    24   16   17 ar
    25   16   20 1
    26   17   18 ar
    27   18   19 ar
    28   18   26 1
    29   20   27 1
    30   20   28 1
@<TRIPOS>MOLECULE
ZINC03869685
   32    34     0     0     0
SMALL
USER_CHARGES

@<TRIPOS>ATOM
      1 C1          0.9741   -0.2755   -0.9644 C.ar      1 <0>        -0.0748
      2 C2          2.1569    0.4329   -0.9701 C.ar      1 <0>        -0.1346
      3 C3          2.3856    1.4156   -0.0177 C.ar      1 <0>         0.1032
      4 C4          1.4203    1.6918    0.9495 C.ar      1 <0>         0.0788
      5 C5          0.2328    0.9863    0.9617 C.ar      1 <0>        -0.0762
      6 C6          0.0021   -0.0041    0.0020 C.ar      1 <0>        -0.0447
      7 C7         -1.2637   -0.7605    0.0100 C.2       1 <0>         0.1350
      8 C8         -2.4363   -0.0759    0.1235 C.2       1 <0>        -0.0429
      9 C9         -3.6628   -0.7894    0.1327 C.2       1 <0>         0.4011
     10 O1         -4.7327   -0.2102    0.2323 O.2       1 <0>        -0.4484
     11 C10        -3.5946   -2.2549    0.0170 C.ar      1 <0>        -0.2690
     12 C11        -4.7561   -3.0387    0.0170 C.ar      1 <0>         0.2244
     13 C12        -4.6504   -4.4123   -0.0941 C.ar      1 <0>        -0.2081
     14 C13        -3.3994   -5.0103   -0.2044 C.ar      1 <0>         0.2000
     15 C14        -2.2463   -4.2416   -0.2047 C.ar      1 <0>        -0.1854
     16 C15        -2.3316   -2.8618   -0.0952 C.ar      1 <0>         0.1876
     17 O2         -1.2182   -2.0992   -0.1003 O.3       1 <0>        -0.1970
     18 O3         -3.3070   -6.3605   -0.3125 O.3       1 <0>        -0.4866
     19 O4         -5.9758   -2.4535    0.1257 O.3       1 <0>        -0.4726
     20 O5         -2.4312    1.2810    0.2275 O.3       1 <0>        -0.4502
     21 O6          1.6480    2.6557    1.8815 O.3       1 <0>        -0.4836
     22 O7          3.5534    2.1101   -0.0273 O.3       1 <0>        -0.4861
     23 H1          0.7971   -1.0371   -1.7094 H         1 <0>         0.1379
     24 H2          2.9075    0.2221   -1.7176 H         1 <0>         0.1421
     25 H3         -0.5155    1.1988    1.7108 H         1 <0>         0.1429
     26 H4         -5.5413   -5.0229   -0.0948 H         1 <0>         0.1515
     27 H5         -1.2805   -4.7174   -0.2903 H         1 <0>         0.1559
     28 H6         -3.3257   -6.6843   -1.2235 H         1 <0>         0.4050
     29 H7         -6.3751   -2.2160   -0.7224 H         1 <0>         0.4036
     30 H8         -3.3120    1.6729    0.3033 H         1 <0>         0.4079
     31 H9          1.3508    3.5370    1.6166 H         1 <0>         0.3905
     32 H10         3.5287    2.9137   -0.5647 H         1 <0>         0.3924
@<TRIPOS>BOND
     1    1    6 ar
     2    1    2 ar
     3    1   23 1
     4    2    3 ar
     5    2   24 1
     6    3    4 ar
     7    3   22 1
     8    4    5 ar
     9    4   21 1
    10    5    6 ar
    11    5   25 1
    12    6    7 1
    13    7   17 1
    14    7    8 2
    15    8    9 1
    16    8   20 1
    17    9   10 2
    18    9   11 1
    19   11   16 ar
    20   11   12 ar
    21   12   13 ar
    22   12   19 1
    23   13   14 ar
    24   13   26 1
    25   14   15 ar
    26   14   18 1
    27   15   16 ar
    28   15   27 1
    29   16   17 1
    30   18   28 1
    31   19   29 1
    32   20   30 1
    33   21   31 1
    34   22   32 1
@<TRIPOS>MOLECULE
ZINC03869685
   31    33     0     0     0
SMALL
USER_CHARGES

@<TRIPOS>ATOM
      1 C1          0.1390    1.1246   -0.8120 C.ar      1 <0>        -0.0626
      2 C2          1.3229    1.8301   -0.8179 C.ar      1 <0>        -0.1333
      3 C3          2.3812    1.4233   -0.0172 C.ar      1 <0>         0.0878
      4 C4          2.2522    0.2984    0.7970 C.ar      1 <0>         0.0757
      5 C5          1.0694   -0.4139    0.8086 C.ar      1 <0>        -0.0997
      6 C6          0.0021   -0.0041    0.0020 C.ar      1 <0>        -0.0194
      7 C7         -1.2620   -0.7597    0.0100 C.2       1 <0>         0.1007
      8 C8         -2.4587   -0.0763    0.1245 C.2       1 <0>        -0.0038
      9 C9         -3.6655   -0.7872    0.1324 C.2       1 <0>         0.3349
     10 C10        -3.6167   -2.1939    0.0219 C.2       1 <0>        -0.3331
     11 C11        -4.8018   -2.9593    0.0240 C.2       1 <0>         0.2664
     12 C12        -4.7326   -4.3182   -0.0844 C.2       1 <0>        -0.3749
     13 C13        -3.4871   -4.9570   -0.1979 C.2       1 <0>         0.3648
     14 O1         -3.4307   -6.2860   -0.3033 O.2       1 <0>        -0.6598
     15 C14        -2.3054   -4.2086   -0.2016 C.2       1 <0>        -0.3143
     16 C15        -2.3616   -2.8325   -0.0921 C.2       1 <0>         0.2118
     17 O2         -1.2290   -2.0988   -0.0996 O.3       1 <0>        -0.2018
     18 O3         -6.0073   -2.3463    0.1339 O.3       1 <0>        -0.4482
     19 O4         -4.8484   -0.1420    0.2437 O.3       1 <0>        -0.5747
     20 O5         -2.4638    1.2803    0.2294 O.3       1 <0>        -0.4649
     21 O6          3.2919   -0.0973    1.5794 O.3       1 <0>        -0.4856
     22 O7          3.5458    2.1225   -0.0269 O.3       1 <0>        -0.4881
     23 H1         -0.6843    1.4460   -1.4327 H         1 <0>         0.1397
     24 H2          1.4276    2.7014   -1.4473 H         1 <0>         0.1381
     25 H3          0.9685   -1.2854    1.4384 H         1 <0>         0.1410
     26 H4         -5.6395   -4.9047   -0.0825 H         1 <0>         0.1180
     27 H5         -1.3506   -4.7057   -0.2895 H         1 <0>         0.1230
     28 H6         -6.7597   -2.9537    0.1258 H         1 <0>         0.3847
     29 H7         -3.3475    1.6656    0.3047 H         1 <0>         0.4058
     30 H8          3.2925    0.2977    2.4620 H         1 <0>         0.3855
     31 H9          3.5825    2.8346    0.6263 H         1 <0>         0.3863
@<TRIPOS>BOND
     1    1    6 ar
     2    1    2 ar
     3    1   23 1
     4    2    3 ar
     5    2   24 1
     6    3    4 ar
     7    3   22 1
     8    4    5 ar
     9    4   21 1
    10    5    6 ar
    11    5   25 1
    12    6    7 1
    13    7   17 1
    14    7    8 2
    15    8    9 1
    16    8   20 1
    17    9   10 2
    18    9   19 1
    19   10   16 1
    20   10   11 1
    21   11   12 2
    22   11   18 1
    23   12   13 1
    24   12   26 1
    25   13   14 2
    26   13   15 1
    27   15   16 2
    28   15   27 1
    29   16   17 1
    30   18   28 1
    31   20   29 1
    32   21   30 1
    33   22   31 1
@<TRIPOS>MOLECULE
ZINC40977366
   26    28     0     0     0
SMALL
USER_CHARGES

@<TRIPOS>ATOM
      1 C1         -0.0169    1.3935    0.0097 C.ar      1 <0>        -0.0511
      2 C2          1.1672    2.0964    0.0022 C.ar      1 <0>        -0.1140
      3 C3          2.3810    1.4175   -0.0131 C.ar      1 <0>         0.1876
      4 C4          2.4038    0.0268   -0.0207 C.ar      1 <0>        -0.1142
      5 C5          1.2237   -0.6829   -0.0133 C.ar      1 <0>        -0.0472
      6 C6          0.0021   -0.0041    0.0020 C.ar      1 <0>        -0.0306
      7 C7         -1.2272   -0.7386    0.0103 C.1       1 <0>         0.2515
      8 N1         -2.2023   -1.3213    0.0168 N.1       1 <0>        -0.4080
      9 N2          3.5803    2.1341   -0.0211 N.pl3     1 <0>        -0.3360
     10 C8          4.7410    1.7608    0.5962 C.ar      1 <0>         0.3768
     11 C9          5.6822    2.7733    0.3255 C.ar      1 <0>        -0.3338
     12 C10         5.0301    3.7433   -0.4672 C.2       1 <0>         0.1198
     13 N3          3.8024    3.3562   -0.6684 N.2       1 <0>        -0.2459
     14 C11         6.9807    2.6347    0.8517 C.ar      1 <0>         0.5227
     15 N4          7.2560    1.5564    1.5778 N.ar      1 <0>        -0.6053
     16 C12         6.3395    0.6325    1.8050 C.ar      1 <0>         0.3952
     17 N5          5.1139    0.7182    1.3351 N.ar      1 <0>        -0.5714
     18 N6          7.9449    3.5956    0.6185 N.pl3     1 <0>        -0.8170
     19 H1         -0.9590    1.9213    0.0260 H         1 <0>         0.1441
     20 H2          1.1533    3.1763    0.0077 H         1 <0>         0.1444
     21 H3          3.3481   -0.4971   -0.0329 H         1 <0>         0.1469
     22 H4          1.2422   -1.7628   -0.0196 H         1 <0>         0.1448
     23 H5          5.4755    4.6510   -0.8466 H         1 <0>         0.2017
     24 H6          6.6072   -0.2277    2.4007 H         1 <0>         0.2086
     25 H7          7.7311    4.3780    0.0865 H         1 <0>         0.4153
     26 H8          8.8358    3.4881    0.9868 H         1 <0>         0.4152
@<TRIPOS>BOND
     1    1    6 ar
     2    1    2 ar
     3    1   19 1
     4    2    3 ar
     5    2   20 1
     6    3    4 ar
     7    3    9 1
     8    4    5 ar
     9    4   21 1
    10    5    6 ar
    11    5   22 1
    12    6    7 1
    13    7    8 3
    14    9   13 1
    15    9   10 1
    16   10   17 ar
    17   10   11 ar
    18   11   12 1
    19   11   14 ar
    20   12   13 2
    21   12   23 1
    22   14   15 ar
    23   14   18 1
    24   15   16 ar
    25   16   17 ar
    26   16   24 1
    27   18   25 1
    28   18   26 1
@<TRIPOS>MOLECULE
ZINC01680445
   27    29     0     0     0
SMALL
USER_CHARGES
9-(4-nitrophenyl)-2,4,8,9-tetrazabicyclo[4.3.0]nona-1,3,5,7-tetraen-5-amine
@<TRIPOS>ATOM
      1 C1         -0.6905    4.2803   -0.6619 C.ar      1 <0>        -0.1149
      2 C2         -1.5956    5.3234   -0.6412 C.ar      1 <0>        -0.0297
      3 C3         -1.2994    6.4841    0.0496 C.ar      1 <0>        -0.0515
      4 C4         -0.0990    6.6027    0.7257 C.ar      1 <0>        -0.0338
      5 C5          0.8080    5.5612    0.7133 C.ar      1 <0>        -0.1148
      6 C6          0.5134    4.3940    0.0208 C.ar      1 <0>         0.2169
      7 N1          1.4310    3.3361    0.0063 N.pl3     1 <0>        -0.3430
      8 C7          1.1198    2.0060    0.0021 C.ar      1 <0>         0.3783
      9 C8          2.3436    1.3082   -0.0133 C.ar      1 <0>        -0.3328
     10 C9          3.3717    2.2760   -0.0180 C.2       1 <0>         0.1274
     11 N2          2.8262    3.4592   -0.0064 N.2       1 <0>        -0.2465
     12 C10         2.3085   -0.0994   -0.0205 C.ar      1 <0>         0.5247
     13 N3          1.1241   -0.7015   -0.0125 N.ar      1 <0>        -0.6025
     14 C11         0.0021   -0.0041    0.0020 C.ar      1 <0>         0.3992
     15 N4         -0.0158    1.3110    0.0093 N.ar      1 <0>        -0.5736
     16 N5          3.4766   -0.8361   -0.0352 N.pl3     1 <0>        -0.8148
     17 N6         -2.2693    7.6023    0.0650 N.pl3     1 <0>         0.0283
     18 O1         -2.0095    8.6254    0.6727 O.2       1 <0>        -0.1558
     19 O2         -3.3270    7.4992   -0.5301 O.3       1 <0>        -0.1547
     20 H1         -0.9204    3.3758   -1.2053 H         1 <0>         0.1589
     21 H2         -2.5336    5.2341   -1.1689 H         1 <0>         0.1648
     22 H3          0.1294    7.5105    1.2643 H         1 <0>         0.1642
     23 H4          1.7456    5.6545    1.2412 H         1 <0>         0.1573
     24 H5          4.4318    2.0701   -0.0296 H         1 <0>         0.2050
     25 H6         -0.9383   -0.5352    0.0078 H         1 <0>         0.2108
     26 H7          3.4387   -1.8053   -0.0397 H         1 <0>         0.4165
     27 H8          4.3349   -0.3842   -0.0410 H         1 <0>         0.4161
@<TRIPOS>BOND
     1    1    6 ar
     2    1    2 ar
     3    1   20 1
     4    2    3 ar
     5    2   21 1
     6    3    4 ar
     7    3   17 1
     8    4    5 ar
     9    4   22 1
    10    5    6 ar
    11    5   23 1
    12    6    7 1
    13    7   11 1
    14    7    8 1
    15    8   15 ar
    16    8    9 ar
    17    9   10 1
    18    9   12 ar
    19   10   11 2
    20   10   24 1
    21   12   13 ar
    22   12   16 1
    23   13   14 ar
    24   14   15 ar
    25   14   25 1
    26   16   26 1
    27   16   27 1
    28   17   18 2
    29   17   19 1
@<TRIPOS>MOLECULE
ZINC01645590
   38    40     0     0     0
SMALL
USER_CHARGES
3,5-dihydroxy-2-(3-hydroxy-4-methoxy-phenyl)-7-methoxy-chromen-4-one
@<TRIPOS>ATOM
      1 C1         -7.8954    2.8479    9.8010 C.3       1 <0>         0.0213
      2 O1         -8.5739    3.0415    8.5584 O.3       1 <0>        -0.3019
      3 C2         -7.9443    2.6033    7.4369 C.ar      1 <0>         0.1319
      4 C3         -6.6984    1.9994    7.5336 C.ar      1 <0>        -0.2032
      5 C4         -6.0552    1.5531    6.3992 C.ar      1 <0>        -0.0428
      6 C5         -6.6577    1.7082    5.1477 C.ar      1 <0>        -0.0978
      7 C6         -7.9099    2.3215    5.0500 C.ar      1 <0>        -0.0460
      8 C7         -8.5509    2.7617    6.1922 C.ar      1 <0>         0.0707
      9 O2         -9.7718    3.3539    6.1013 O.3       1 <0>        -0.4800
     10 C8         -5.9715    1.2313    3.9328 C.2       1 <0>         0.1727
     11 C9         -6.6689    0.4751    3.0393 C.2       1 <0>        -0.0701
     12 C10        -6.0225    0.0083    1.8656 C.2       1 <0>         0.4106
     13 O3         -6.6150   -0.6717    1.0430 O.2       1 <0>        -0.4413
     14 C11        -4.6097    0.3755    1.6790 C.ar      1 <0>        -0.2884
     15 C12        -3.8934   -0.0425    0.5495 C.ar      1 <0>         0.2443
     16 C13        -2.5676    0.3226    0.4107 C.ar      1 <0>        -0.2676
     17 C14        -1.9508    1.0994    1.3860 C.ar      1 <0>         0.2120
     18 C15        -2.6514    1.5117    2.5084 C.ar      1 <0>        -0.1902
     19 C16        -3.9840    1.1604    2.6631 C.ar      1 <0>         0.2030
     20 O4         -4.6810    1.5584    3.7479 O.3       1 <0>        -0.2052
     21 O5         -0.6481    1.4523    1.2396 O.3       1 <0>        -0.3024
     22 C17         0.0207    0.9914    0.0640 C.3       1 <0>         0.0215
     23 O6         -4.4968   -0.8007   -0.4008 O.3       1 <0>        -0.4735
     24 O7         -7.9747    0.1697    3.2710 O.3       1 <0>        -0.4552
     25 H1         -7.7231    1.7832    9.9589 H         1 <0>         0.0598
     26 H2         -6.9395    3.3712    9.7784 H         1 <0>         0.0595
     27 H3         -8.5060    3.2416   10.6136 H         1 <0>         0.1056
     28 H4         -6.2315    1.8793    8.5001 H         1 <0>         0.1422
     29 H5         -5.0855    1.0839    6.4774 H         1 <0>         0.1376
     30 H6         -8.3771    2.4474    4.0844 H         1 <0>         0.1506
     31 H7         -9.7360    4.3133    5.9858 H         1 <0>         0.3901
     32 H8         -2.0090    0.0039   -0.4569 H         1 <0>         0.1500
     33 H9         -2.1603    2.1105    3.2612 H         1 <0>         0.1562
     34 H10         0.0084   -0.0984    0.0426 H         1 <0>         0.0628
     35 H11         1.0525    1.3429    0.0715 H         1 <0>         0.1091
     36 H12        -0.4884    1.3779   -0.8189 H         1 <0>         0.0636
     37 H13        -4.4251   -1.7529   -0.2483 H         1 <0>         0.4040
     38 H14        -8.1049   -0.6511    3.7654 H         1 <0>         0.3865
@<TRIPOS>BOND
     1    1    2 1
     2    1   25 1
     3    1   26 1
     4    1   27 1
     5    2    3 1
     6    3    8 ar
     7    3    4 ar
     8    4    5 ar
     9    4   28 1
    10    5    6 ar
    11    5   29 1
    12    6    7 ar
    13    6   10 1
    14    7    8 ar
    15    7   30 1
    16    8    9 1
    17    9   31 1
    18   10   20 1
    19   10   11 2
    20   11   12 1
    21   11   24 1
    22   12   13 2
    23   12   14 1
    24   14   19 ar
    25   14   15 ar
    26   15   16 ar
    27   15   23 1
    28   16   17 ar
    29   16   32 1
    30   17   18 ar
    31   17   21 1
    32   18   19 ar
    33   18   33 1
    34   19   20 1
    35   21   22 1
    36   22   34 1
    37   22   35 1
    38   22   36 1
    39   23   37 1
    40   24   38 1
@<TRIPOS>MOLECULE
ZINC03871633
   30    32     0     0     0
SMALL
USER_CHARGES

@<TRIPOS>ATOM
      1 C1         -0.0167    1.3795    0.0096 C.ar      1 <0>        -0.0921
      2 C2          1.1683    2.0940    0.0021 C.ar      1 <0>        -0.1230
      3 C3          2.3774    1.4303   -0.0130 C.ar      1 <0>        -0.0790
      4 C4          2.4038    0.0341   -0.0208 C.ar      1 <0>        -0.0756
      5 C5          1.2040   -0.6806   -0.0131 C.ar      1 <0>        -0.0796
      6 C6          0.0021   -0.0041    0.0020 C.ar      1 <0>        -0.1207
      7 C7          3.6945   -0.6834   -0.0374 C.2       1 <0>         0.2091
      8 C8          3.6864   -2.0423   -0.0503 C.2       1 <0>        -0.3117
      9 C9          4.9141   -2.7479   -0.0669 C.2       1 <0>         0.4234
     10 O1          4.9443   -3.9678   -0.0790 O.2       1 <0>        -0.4507
     11 C10         6.1530   -1.9519   -0.0693 C.ar      1 <0>        -0.2508
     12 C11         6.0489   -0.5496   -0.0552 C.ar      1 <0>         0.1748
     13 O2          4.8301    0.0318   -0.0449 O.3       1 <0>        -0.2163
     14 C12         7.2014    0.2203   -0.0572 C.ar      1 <0>        -0.1662
     15 C13         8.4452   -0.3910   -0.0736 C.ar      1 <0>         0.1647
     16 C14         8.5528   -1.7804   -0.0881 C.ar      1 <0>         0.0244
     17 C15         7.4110   -2.5656   -0.0858 C.ar      1 <0>         0.1934
     18 O3          7.5117   -3.9201   -0.0990 O.3       1 <0>        -0.4665
     19 O4          9.7814   -2.3670   -0.1045 O.3       1 <0>        -0.4726
     20 O5          9.5696    0.3710   -0.0759 O.3       1 <0>        -0.4763
     21 H1         -0.9606    1.9042    0.0260 H         1 <0>         0.1310
     22 H2          1.1464    3.1737    0.0078 H         1 <0>         0.1327
     23 H3          3.3016    1.9892   -0.0192 H         1 <0>         0.1352
     24 H4          1.2173   -1.7605   -0.0194 H         1 <0>         0.1363
     25 H5         -0.9265   -0.5555    0.0079 H         1 <0>         0.1348
     26 H6          2.7501   -2.5805   -0.0475 H         1 <0>         0.1647
     27 H7          7.1302    1.2979   -0.0464 H         1 <0>         0.1582
     28 H8          7.5333   -4.3043   -0.9861 H         1 <0>         0.4056
     29 H9         10.1439   -2.5451    0.7741 H         1 <0>         0.3918
     30 H10         9.9027    0.5834    0.8067 H         1 <0>         0.4008
@<TRIPOS>BOND
     1    1    6 ar
     2    1    2 ar
     3    1   21 1
     4    2    3 ar
     5    2   22 1
     6    3    4 ar
     7    3   23 1
     8    4    5 ar
     9    4    7 1
    10    5    6 ar
    11    5   24 1
    12    6   25 1
    13    7   13 1
    14    7    8 2
    15    8    9 1
    16    8   26 1
    17    9   10 2
    18    9   11 1
    19   11   17 ar
    20   11   12 ar
    21   12   13 1
    22   12   14 ar
    23   14   15 ar
    24   14   27 1
    25   15   16 ar
    26   15   20 1
    27   16   17 ar
    28   16   19 1
    29   17   18 1
    30   18   28 1
    31   19   29 1
    32   20   30 1
